data_files/feeders/Baneshwor_SS_Feeders/data_files/Lines/Lines_1.txt
New	Line.line_BAG_1001_1220	Bus1=1001	Bus2=1220	phases=3	Linecode=3p_11kV_100_XLPE_Al_u	Length=6.04469	Units=m
New	Line.line_BAG_1002_1224	Bus1=1002	Bus2=1224	phases=3	Linecode=3p_11kV_100_XLPE_Al_u	Length=2.82922	Units=m
New	Line.line_BAG_1003_1233	Bus1=1003	Bus2=1233	phases=3	Linecode=3p_11kV_100_XLPE_Al_u	Length=8.84335	Units=m
New	Line.line_BAG_1004_1239	Bus1=1004	Bus2=1239	phases=3	Linecode=3p_11kV_100_XLPE_Al_u	Length=2.26166	Units=m
New	Line.line_BAG_1005_1234	Bus1=1005	Bus2=1234	phases=3	Linecode=3p_11kV_100_XLPE_Al_u	Length=2.30923	Units=m
New	Line.line_BAG_1006_1230	Bus1=1006	Bus2=1230	phases=3	Linecode=3p_11kV_100_XLPE_Al_u	Length=3.80212	Units=m
New	Line.line_BAG_1007_1229	Bus1=1007	Bus2=1229	phases=3	Linecode=3p_11kV_100_XLPE_Al_u	Length=0.175667	Units=m
New	Line.line_BAG_1008_1243	Bus1=1008	Bus2=1243	phases=3	Linecode=3p_11kV_100_XLPE_Al_u	Length=3.91322	Units=m
New	Line.line_BAG_1009_1255	Bus1=1009	Bus2=1255	phases=3	Linecode=3p_11kV_100_XLPE_Al_u	Length=1.46744	Units=m
New	Line.line_BAG_101_1217	Bus1=101	Bus2=1217	phases=3	Linecode=3p_11kV_100_XLPE_Al_u	Length=6.19452	Units=m
New	Line.line_BAG_1010_1265	Bus1=1010	Bus2=1265	phases=3	Linecode=3p_11kV_100_XLPE_Al_u	Length=20.4742	Units=m
New	Line.line_BAG_1011_1273	Bus1=1011	Bus2=1273	phases=3	Linecode=3p_11kV_100_XLPE_Al_u	Length=20.0663	Units=m
New	Line.line_BAG_1012_1281	Bus1=1012	Bus2=1281	phases=3	Linecode=3p_11kV_100_XLPE_Al_u	Length=8.9412	Units=m
New	Line.line_BAG_1013_1284	Bus1=1013	Bus2=1284	phases=3	Linecode=3p_11kV_100_XLPE_Al_u	Length=0.522637	Units=m
New	Line.line_BAG_1014_1286	Bus1=1014	Bus2=1286	phases=3	Linecode=3p_11kV_100_XLPE_Al_u	Length=1.38262	Units=m
New	Line.line_BAG_1015_1280	Bus1=1015	Bus2=1280	phases=3	Linecode=3p_11kV_100_XLPE_Al_u	Length=30.2224	Units=m
New	Line.line_BAG_1016_1017	Bus1=1016	Bus2=1017	phases=3	Linecode=3p_11kV_100_XLPE_Al_u	Length=39.2335	Units=m
New	Line.line_BAG_1017_1018	Bus1=1017	Bus2=1018	phases=3	Linecode=3p_11kV_100_XLPE_Al_u	Length=32.6236	Units=m
New	Line.line_BAG_1018_1275	Bus1=1018	Bus2=1275	phases=3	Linecode=3p_11kV_100_XLPE_Al_u	Length=7.22542	Units=m
New	Line.line_BAG_1019_1271	Bus1=1019	Bus2=1271	phases=3	Linecode=3p_11kV_100_XLPE_Al_u	Length=0.00579	Units=m
New	Line.line_BAG_1020_1270	Bus1=1020	Bus2=1270	phases=3	Linecode=3p_11kV_100_XLPE_Al_u	Length=7.44336	Units=m
New	Line.line_BAG_1021_1268	Bus1=1021	Bus2=1268	phases=3	Linecode=3p_11kV_100_XLPE_Al_u	Length=0.816859	Units=m
New	Line.line_BAG_1022_1023	Bus1=1022	Bus2=1023	phases=3	Linecode=3p_11kV_100_ACSR_Al_o	Length=17.1121	Units=m
New	Line.line_BAG_1023_1024	Bus1=1023	Bus2=1024	phases=3	Linecode=3p_11kV_100_ACSR_Al_o	Length=21.8972	Units=m
New	Line.line_BAG_1024_1025	Bus1=1024	Bus2=1025	phases=3	Linecode=3p_11kV_100_ACSR_Al_o	Length=21.119	Units=m
New	Line.line_BAG_1025_1026	Bus1=1025	Bus2=1026	phases=3	Linecode=3p_11kV_100_ACSR_Al_o	Length=21.9997	Units=m
New	Line.line_BAG_1026_1027	Bus1=1026	Bus2=1027	phases=3	Linecode=3p_11kV_100_ACSR_Al_o	Length=23.3073	Units=m
New	Line.line_BAG_1027_1028	Bus1=1027	Bus2=1028	phases=3	Linecode=3p_11kV_100_ACSR_Al_o	Length=20.7128	Units=m
New	Line.line_BAG_1028_1029	Bus1=1028	Bus2=1029	phases=3	Linecode=3p_11kV_100_ACSR_Al_o	Length=22.8853	Units=m
New	Line.line_BAG_1029_1030	Bus1=1029	Bus2=1030	phases=3	Linecode=3p_11kV_100_ACSR_Al_o	Length=20.2749	Units=m
New	Line.line_BAG_1030_1031	Bus1=1030	Bus2=1031	phases=3	Linecode=3p_11kV_100_ACSR_Al_o	Length=20.762	Units=m
New	Line.line_BAG_1031_1032	Bus1=1031	Bus2=1032	phases=3	Linecode=3p_11kV_100_ACSR_Al_o	Length=19.0436	Units=m
New	Line.line_BAG_1032_1078	Bus1=1032	Bus2=1078	phases=3	Linecode=3p_11kV_100_ACSR_Al_o	Length=29.1285	Units=m
New	Line.line_BAG_1033_1034	Bus1=1033	Bus2=1034	phases=3	Linecode=3p_11kV_100_ACSR_Al_o	Length=29.3398	Units=m
New	Line.line_BAG_1034_1035	Bus1=1034	Bus2=1035	phases=3	Linecode=3p_11kV_100_ACSR_Al_o	Length=33.2436	Units=m
New	Line.line_BAG_1035_1036	Bus1=1035	Bus2=1036	phases=3	Linecode=3p_11kV_100_ACSR_Al_o	Length=27.9786	Units=m
New	Line.line_BAG_1036_1037	Bus1=1036	Bus2=1037	phases=3	Linecode=3p_11kV_100_ACSR_Al_o	Length=53.7526	Units=m
New	Line.line_BAG_1037_1038	Bus1=1037	Bus2=1038	phases=3	Linecode=3p_11kV_100_ACSR_Al_o	Length=13.6072	Units=m
New	Line.line_BAG_1038_1039	Bus1=1038	Bus2=1039	phases=3	Linecode=3p_11kV_100_ACSR_Al_o	Length=36.109	Units=m
New	Line.line_BAG_1039_1040	Bus1=1039	Bus2=1040	phases=3	Linecode=3p_11kV_100_ACSR_Al_o	Length=31.5504	Units=m
New	Line.line_BAG_1040_1041	Bus1=1040	Bus2=1041	phases=3	Linecode=3p_11kV_100_ACSR_Al_o	Length=20.6649	Units=m
New	Line.line_BAG_1041_1042	Bus1=1041	Bus2=1042	phases=3	Linecode=3p_11kV_100_ACSR_Al_o	Length=24.2869	Units=m
New	Line.line_BAG_1042_1043	Bus1=1042	Bus2=1043	phases=3	Linecode=3p_11kV_100_ACSR_Al_o	Length=31.4536	Units=m
New	Line.line_BAG_1043_1263	Bus1=1043	Bus2=1263	phases=3	Linecode=3p_11kV_100_ACSR_Al_o	Length=3.66739	Units=m
New	Line.line_BAG_1044_1259	Bus1=1044	Bus2=1259	phases=3	Linecode=3p_11kV_100_ACSR_Al_o	Length=8.04735	Units=m
New	Line.line_BAG_1045_1257	Bus1=1045	Bus2=1257	phases=3	Linecode=3p_11kV_100_ACSR_Al_o	Length=15.6288	Units=m
New	Line.line_BAG_1046_1247	Bus1=1046	Bus2=1247	phases=3	Linecode=3p_11kV_100_ACSR_Al_o	Length=17.9066	Units=m
New	Line.line_BAG_1047_1241	Bus1=1047	Bus2=1241	phases=3	Linecode=3p_11kV_100_ACSR_Al_o	Length=21.8559	Units=m
New	Line.line_BAG_1048_1242	Bus1=1048	Bus2=1242	phases=3	Linecode=3p_11kV_100_ACSR_Al_o	Length=15.5107	Units=m
New	Line.line_BAG_1049_1246	Bus1=1049	Bus2=1246	phases=3	Linecode=3p_11kV_100_ACSR_Al_o	Length=21.1079	Units=m
New	Line.line_BAG_1050_1251	Bus1=1050	Bus2=1251	phases=3	Linecode=3p_11kV_100_ACSR_Al_o	Length=21.2488	Units=m
New	Line.line_BAG_1051_1253	Bus1=1051	Bus2=1253	phases=3	Linecode=3p_11kV_100_ACSR_Al_o	Length=3.41445	Units=m
New	Line.line_BAG_1052_1260	Bus1=1052	Bus2=1260	phases=3	Linecode=3p_11kV_100_ACSR_Al_o	Length=16.7205	Units=m
New	Line.line_BAG_1053_1264	Bus1=1053	Bus2=1264	phases=3	Linecode=3p_11kV_100_ACSR_Al_o	Length=4.35457	Units=m
New	Line.line_BAG_1054_1269	Bus1=1054	Bus2=1269	phases=3	Linecode=3p_11kV_100_ACSR_Al_o	Length=7.90038	Units=m
New	Line.line_BAG_1055_1274	Bus1=1055	Bus2=1274	phases=3	Linecode=3p_11kV_100_ACSR_Al_o	Length=0.573407	Units=m
New	Line.line_BAG_1056_1282	Bus1=1056	Bus2=1282	phases=3	Linecode=3p_11kV_100_ACSR_Al_o	Length=5.83723	Units=m
New	Line.line_BAG_1057_1288	Bus1=1057	Bus2=1288	phases=3	Linecode=3p_11kV_100_ACSR_Al_o	Length=17.6532	Units=m
New	Line.line_BAG_1058_1290	Bus1=1058	Bus2=1290	phases=3	Linecode=3p_11kV_100_ACSR_Al_o	Length=19.2268	Units=m
New	Line.line_BAG_1059_1291	Bus1=1059	Bus2=1291	phases=3	Linecode=3p_11kV_100_ACSR_Al_o	Length=5.18605	Units=m
New	Line.line_BAG_1060_1294	Bus1=1060	Bus2=1294	phases=3	Linecode=3p_11kV_100_ACSR_Al_o	Length=7.00213	Units=m
New	Line.line_BAG_1061_1296	Bus1=1061	Bus2=1296	phases=3	Linecode=3p_11kV_100_ACSR_Al_o	Length=2.58934	Units=m
New	Line.line_BAG_1062_1298	Bus1=1062	Bus2=1298	phases=3	Linecode=3p_11kV_100_ACSR_Al_o	Length=0.614495	Units=m
New	Line.line_BAG_1063_1300	Bus1=1063	Bus2=1300	phases=3	Linecode=3p_11kV_100_ACSR_Al_o	Length=9.78416	Units=m
New	Line.line_BAG_1064_1302	Bus1=1064	Bus2=1302	phases=3	Linecode=3p_11kV_100_ACSR_Al_o	Length=5.39995	Units=m
New	Line.line_BAG_1065_1304	Bus1=1065	Bus2=1304	phases=3	Linecode=3p_11kV_100_ACSR_Al_o	Length=9.8821	Units=m
New	Line.line_BAG_1066_1305	Bus1=1066	Bus2=1305	phases=3	Linecode=3p_11kV_100_ACSR_Al_o	Length=0.109006	Units=m
New	Line.line_BAG_1067_1307	Bus1=1067	Bus2=1307	phases=3	Linecode=3p_11kV_100_ACSR_Al_o	Length=11.8015	Units=m
New	Line.line_BAG_1068_1309	Bus1=1068	Bus2=1309	phases=3	Linecode=3p_11kV_100_ACSR_Al_o	Length=14.6729	Units=m
New	Line.line_BAG_1069_1070	Bus1=1069	Bus2=1070	phases=3	Linecode=3p_11kV_100_ACSR_Al_o	Length=26.358	Units=m
New	Line.line_BAG_1070_1071	Bus1=1070	Bus2=1071	phases=3	Linecode=3p_11kV_100_ACSR_Al_o	Length=13.7342	Units=m
New	Line.line_BAG_1071_1072	Bus1=1071	Bus2=1072	phases=3	Linecode=3p_11kV_100_ACSR_Al_o	Length=16.1673	Units=m
New	Line.line_BAG_1072_1073	Bus1=1072	Bus2=1073	phases=3	Linecode=3p_11kV_100_ACSR_Al_o	Length=34.646	Units=m
New	Line.line_BAG_1073_1074	Bus1=1073	Bus2=1074	phases=3	Linecode=3p_11kV_100_ACSR_Al_o	Length=29.5551	Units=m
New	Line.line_BAG_1074_1075	Bus1=1074	Bus2=1075	phases=3	Linecode=3p_11kV_100_ACSR_Al_o	Length=23.3122	Units=m
New	Line.line_BAG_1075_1076	Bus1=1075	Bus2=1076	phases=3	Linecode=3p_11kV_100_ACSR_Al_o	Length=30.3534	Units=m
New	Line.line_BAG_1076_1077	Bus1=1076	Bus2=1077	phases=3	Linecode=3p_11kV_100_ACSR_Al_o	Length=10.5385	Units=m
New	Line.line_BAG_1077_1114	Bus1=1077	Bus2=1114	phases=3	Linecode=3p_11kV_100_ACSR_Al_o	Length=44.8751	Units=m


New	Line.line_BAG_1079_1080	Bus1=1079	Bus2=1080	phases=3	Linecode=3p_11kV_100_ACSR_Al_o	Length=17.3889	Units=m
New	Line.line_BAG_1080_1081	Bus1=1080	Bus2=1081	phases=3	Linecode=3p_11kV_100_ACSR_Al_o	Length=24.3008	Units=m
New	Line.line_BAG_1081_1082	Bus1=1081	Bus2=1082	phases=3	Linecode=3p_11kV_100_ACSR_Al_o	Length=18.1215	Units=m
New	Line.line_BAG_1082_1083	Bus1=1082	Bus2=1083	phases=3	Linecode=3p_11kV_100_ACSR_Al_o	Length=17.2493	Units=m
New	Line.line_BAG_1083_1084	Bus1=1083	Bus2=1084	phases=3	Linecode=3p_11kV_100_ACSR_Al_o	Length=24.8618	Units=m
New	Line.line_BAG_1084_1085	Bus1=1084	Bus2=1085	phases=3	Linecode=3p_11kV_100_ACSR_Al_o	Length=19.3259	Units=m
New	Line.line_BAG_1085_1086	Bus1=1085	Bus2=1086	phases=3	Linecode=3p_11kV_100_ACSR_Al_o	Length=16.6217	Units=m
New	Line.line_BAG_1086_1087	Bus1=1086	Bus2=1087	phases=3	Linecode=3p_11kV_100_ACSR_Al_o	Length=26.0104	Units=m
New	Line.line_BAG_1087_1088	Bus1=1087	Bus2=1088	phases=3	Linecode=3p_11kV_100_ACSR_Al_o	Length=22.1808	Units=m
New	Line.line_BAG_1088_1089	Bus1=1088	Bus2=1089	phases=3	Linecode=3p_11kV_100_ACSR_Al_o	Length=15.6006	Units=m
New	Line.line_BAG_1089_1090	Bus1=1089	Bus2=1090	phases=3	Linecode=3p_11kV_100_ACSR_Al_o	Length=19.0134	Units=m
New	Line.line_BAG_1090_1091	Bus1=1090	Bus2=1091	phases=3	Linecode=3p_11kV_100_ACSR_Al_o	Length=19.0611	Units=m
New	Line.line_BAG_1091_1092	Bus1=1091	Bus2=1092	phases=3	Linecode=3p_11kV_100_ACSR_Al_o	Length=15.5224	Units=m
New	Line.line_BAG_1092_1093	Bus1=1092	Bus2=1093	phases=3	Linecode=3p_11kV_100_ACSR_Al_o	Length=19.5499	Units=m
New	Line.line_BAG_1093_1216	Bus1=1093	Bus2=1216	phases=3	Linecode=3p_11kV_100_ACSR_Al_o	Length=7.33915	Units=m
New	Line.line_BAG_1094_1095	Bus1=1094	Bus2=1095	phases=3	Linecode=3p_11kV_100_ACSR_Al_o	Length=9.74125	Units=m
New	Line.line_BAG_1095_1096	Bus1=1095	Bus2=1096	phases=3	Linecode=3p_11kV_100_ACSR_Al_o	Length=7.90813	Units=m
New	Line.line_BAG_1096_1097	Bus1=1096	Bus2=1097	phases=3	Linecode=3p_11kV_100_ACSR_Al_o	Length=7.40058	Units=m
New	Line.line_BAG_1097_1098	Bus1=1097	Bus2=1098	phases=3	Linecode=3p_11kV_100_ACSR_Al_o	Length=24.4666	Units=m
New	Line.line_BAG_1098_1099	Bus1=1098	Bus2=1099	phases=3	Linecode=3p_11kV_100_ACSR_Al_o	Length=21.0746	Units=m
New	Line.line_BAG_1099_1100	Bus1=1099	Bus2=1100	phases=3	Linecode=3p_11kV_100_ACSR_Al_o	Length=22.6729	Units=m
New	Line.line_BAG_1100_1101	Bus1=1100	Bus2=1101	phases=3	Linecode=3p_11kV_100_ACSR_Al_o	Length=20.3115	Units=m
New	Line.line_BAG_1101_1102	Bus1=1101	Bus2=1102	phases=3	Linecode=3p_11kV_100_ACSR_Al_o	Length=22.4656	Units=m
New	Line.line_BAG_1102_1103	Bus1=1102	Bus2=1103	phases=3	Linecode=3p_11kV_100_ACSR_Al_o	Length=25.6014	Units=m
New	Line.line_BAG_1103_1104	Bus1=1103	Bus2=1104	phases=3	Linecode=3p_11kV_100_ACSR_Al_o	Length=18.7941	Units=m
New	Line.line_BAG_1104_1105	Bus1=1104	Bus2=1105	phases=3	Linecode=3p_11kV_100_ACSR_Al_o	Length=19.2441	Units=m
New	Line.line_BAG_1105_1106	Bus1=1105	Bus2=1106	phases=3	Linecode=3p_11kV_100_ACSR_Al_o	Length=15.7967	Units=m
New	Line.line_BAG_1106_1107	Bus1=1106	Bus2=1107	phases=3	Linecode=3p_11kV_100_ACSR_Al_o	Length=20.5191	Units=m
New	Line.line_BAG_1107_1108	Bus1=1107	Bus2=1108	phases=3	Linecode=3p_11kV_100_ACSR_Al_o	Length=22.4359	Units=m
New	Line.line_BAG_1108_1109	Bus1=1108	Bus2=1109	phases=3	Linecode=3p_11kV_100_ACSR_Al_o	Length=21.3993	Units=m
New	Line.line_BAG_1109_1110	Bus1=1109	Bus2=1110	phases=3	Linecode=3p_11kV_100_ACSR_Al_o	Length=16.0019	Units=m
New	Line.line_BAG_1110_1111	Bus1=1110	Bus2=1111	phases=3	Linecode=3p_11kV_100_ACSR_Al_o	Length=12.2532	Units=m
New	Line.line_BAG_1111_1112	Bus1=1111	Bus2=1112	phases=3	Linecode=3p_11kV_100_ACSR_Al_o	Length=15.2114	Units=m
New	Line.line_BAG_1112_1116	Bus1=1112	Bus2=1116	phases=3	Linecode=3p_11kV_100_ACSR_Al_o	Length=40.9917	Units=m
New	Line.line_BAG_1112_1118	Bus1=1112	Bus2=1118	phases=3	Linecode=3p_11kV_100_ACSR_Al_o	Length=10.022	Units=m
New	Line.line_BAG_1114_1113	Bus1=1114	Bus2=1113	phases=3	Linecode=3p_11kV_100_ACSR_Al_o	Length=38.4273	Units=m
New	Line.line_BAG_1114_1115	Bus1=1114	Bus2=1115	phases=3	Linecode=3p_11kV_100_ACSR_Al_o	Length=50.3759	Units=m
New	Line.line_BAG_1116_1117	Bus1=1116	Bus2=1117	phases=3	Linecode=3p_11kV_100_ACSR_Al_o	Length=59.5311	Units=m
New	Line.line_BAG_1118_1119	Bus1=1118	Bus2=1119	phases=3	Linecode=3p_11kV_100_ACSR_Al_o	Length=22.4732	Units=m
New	Line.line_BAG_1119_1120	Bus1=1119	Bus2=1120	phases=3	Linecode=3p_11kV_100_ACSR_Al_o	Length=21.5158	Units=m
New	Line.line_BAG_1120_1121	Bus1=1120	Bus2=1121	phases=3	Linecode=3p_11kV_100_ACSR_Al_o	Length=23.428	Units=m
New	Line.line_BAG_1121_1122	Bus1=1121	Bus2=1122	phases=3	Linecode=3p_11kV_100_ACSR_Al_o	Length=3.52858	Units=m
New	Line.line_BAG_1122_1123	Bus1=1122	Bus2=1123	phases=3	Linecode=3p_11kV_100_ACSR_Al_o	Length=15.8181	Units=m
New	Line.line_BAG_1123_1124	Bus1=1123	Bus2=1124	phases=3	Linecode=3p_11kV_100_ACSR_Al_o	Length=23.0925	Units=m
New	Line.line_BAG_1124_1131	Bus1=1124	Bus2=1131	phases=3	Linecode=3p_11kV_100_ACSR_Al_o	Length=8.78581	Units=m
New	Line.line_BAG_1125_1126	Bus1=1125	Bus2=1126	phases=3	Linecode=3p_11kV_100_ACSR_Al_o	Length=37.9755	Units=m
New	Line.line_BAG_1126_1127	Bus1=1126	Bus2=1127	phases=3	Linecode=3p_11kV_100_ACSR_Al_o	Length=21.4477	Units=m
New	Line.line_BAG_1127_1128	Bus1=1127	Bus2=1128	phases=3	Linecode=3p_11kV_100_ACSR_Al_o	Length=34.7122	Units=m
New	Line.line_BAG_1128_1129	Bus1=1128	Bus2=1129	phases=3	Linecode=3p_11kV_100_ACSR_Al_o	Length=46.6956	Units=m
New	Line.line_BAG_1129_1130	Bus1=1129	Bus2=1130	phases=3	Linecode=3p_11kV_100_ACSR_Al_o	Length=21.5271	Units=m
New	Line.line_BAG_1131_1132	Bus1=1131	Bus2=1132	phases=3	Linecode=3p_11kV_100_ACSR_Al_o	Length=14.7194	Units=m
New	Line.line_BAG_1131_1310	Bus1=1131	Bus2=1310	phases=3	Linecode=3p_11kV_100_ACSR_Al_o	Length=1.28973	Units=m
New	Line.line_BAG_1132_1133	Bus1=1132	Bus2=1133	phases=3	Linecode=3p_11kV_100_ACSR_Al_o	Length=18.8898	Units=m
New	Line.line_BAG_1133_1134	Bus1=1133	Bus2=1134	phases=3	Linecode=3p_11kV_100_ACSR_Al_o	Length=31.0918	Units=m
New	Line.line_BAG_1134_1135	Bus1=1134	Bus2=1135	phases=3	Linecode=3p_11kV_100_ACSR_Al_o	Length=19.049	Units=m
New	Line.line_BAG_1135_1136	Bus1=1135	Bus2=1136	phases=3	Linecode=3p_11kV_100_ACSR_Al_o	Length=7.70415	Units=m
New	Line.line_BAG_1136_1137	Bus1=1136	Bus2=1137	phases=3	Linecode=3p_11kV_100_ACSR_Al_o	Length=12.7142	Units=m
New	Line.line_BAG_1137_1140	Bus1=1137	Bus2=1140	phases=3	Linecode=3p_11kV_100_ACSR_Al_o	Length=11.0375	Units=m
New	Line.line_BAG_1138_1139	Bus1=1138	Bus2=1139	phases=3	Linecode=3p_11kV_100_ACSR_Al_o	Length=18.2362	Units=m
New	Line.line_BAG_1140_1138	Bus1=1140	Bus2=1138	phases=3	Linecode=3p_11kV_100_ACSR_Al_o	Length=47.4194	Units=m
New	Line.line_BAG_1140_1141	Bus1=1140	Bus2=1141	phases=3	Linecode=3p_11kV_100_ACSR_Al_o	Length=22.6028	Units=m
New	Line.line_BAG_1141_1142	Bus1=1141	Bus2=1142	phases=3	Linecode=3p_11kV_100_ACSR_Al_o	Length=23.7188	Units=m
New	Line.line_BAG_1142_1143	Bus1=1142	Bus2=1143	phases=3	Linecode=3p_11kV_100_ACSR_Al_o	Length=23.3056	Units=m
New	Line.line_BAG_1143_1144	Bus1=1143	Bus2=1144	phases=3	Linecode=3p_11kV_100_ACSR_Al_o	Length=27.19	Units=m
New	Line.line_BAG_1144_1145	Bus1=1144	Bus2=1145	phases=3	Linecode=3p_11kV_100_ACSR_Al_o	Length=28.8699	Units=m
New	Line.line_BAG_1145_1146	Bus1=1145	Bus2=1146	phases=3	Linecode=3p_11kV_100_ACSR_Al_o	Length=24.2457	Units=m
New	Line.line_BAG_1146_1147	Bus1=1146	Bus2=1147	phases=3	Linecode=3p_11kV_100_ACSR_Al_o	Length=23.1441	Units=m
New	Line.line_BAG_1147_1148	Bus1=1147	Bus2=1148	phases=3	Linecode=3p_11kV_100_ACSR_Al_o	Length=9.12903	Units=m
New	Line.line_BAG_1148_1149	Bus1=1148	Bus2=1149	phases=3	Linecode=3p_11kV_100_ACSR_Al_o	Length=14.9739	Units=m
New	Line.line_BAG_1149_1150	Bus1=1149	Bus2=1150	phases=3	Linecode=3p_11kV_100_ABC_Al_o	Length=25.1219	Units=m
New	Line.line_BAG_1150_1151	Bus1=1150	Bus2=1151	phases=3	Linecode=3p_11kV_100_ABC_Al_o	Length=16.3104	Units=m
New	Line.line_BAG_1151_1152	Bus1=1151	Bus2=1152	phases=3	Linecode=3p_11kV_100_ABC_Al_o	Length=16.4571	Units=m
New	Line.line_BAG_1152_1153	Bus1=1152	Bus2=1153	phases=3	Linecode=3p_11kV_100_ABC_Al_o	Length=17.8247	Units=m
New	Line.line_BAG_1153_1154	Bus1=1153	Bus2=1154	phases=3	Linecode=3p_11kV_100_ABC_Al_o	Length=22.2201	Units=m
New	Line.line_BAG_1154_1155	Bus1=1154	Bus2=1155	phases=3	Linecode=3p_11kV_100_ABC_Al_o	Length=15.3939	Units=m
New	Line.line_BAG_1155_1215	Bus1=1155	Bus2=1215	phases=3	Linecode=3p_11kV_100_ABC_Al_o	Length=10.3226	Units=m
New	Line.line_BAG_1156_1157	Bus1=1156	Bus2=1157	phases=3	Linecode=3p_11kV_100_ABC_Al_o	Length=29.8269	Units=m
New	Line.line_BAG_1157_1158	Bus1=1157	Bus2=1158	phases=3	Linecode=3p_11kV_100_ABC_Al_o	Length=29.2	Units=m
New	Line.line_BAG_1158_1159	Bus1=1158	Bus2=1159	phases=3	Linecode=3p_11kV_100_ABC_Al_o	Length=19.0121	Units=m
New	Line.line_BAG_1159_1160	Bus1=1159	Bus2=1160	phases=3	Linecode=3p_11kV_100_ABC_Al_o	Length=22.6358	Units=m
New	Line.line_BAG_1160_1161	Bus1=1160	Bus2=1161	phases=3	Linecode=3p_11kV_100_ABC_Al_o	Length=27.539	Units=m
New	Line.line_BAG_1161_1162	Bus1=1161	Bus2=1162	phases=3	Linecode=3p_11kV_100_ABC_Al_o	Length=19.4623	Units=m
New	Line.line_BAG_1162_1163	Bus1=1162	Bus2=1163	phases=3	Linecode=3p_11kV_100_ABC_Al_o	Length=19.5484	Units=m
New	Line.line_BAG_1163_1164	Bus1=1163	Bus2=1164	phases=3	Linecode=3p_11kV_100_ABC_Al_o	Length=24.3968	Units=m
New	Line.line_BAG_1164_1165	Bus1=1164	Bus2=1165	phases=3	Linecode=3p_11kV_100_ABC_Al_o	Length=21.1673	Units=m
New	Line.line_BAG_1165_1166	Bus1=1165	Bus2=1166	phases=3	Linecode=3p_11kV_100_ABC_Al_o	Length=20.3729	Units=m
New	Line.line_BAG_1166_1167	Bus1=1166	Bus2=1167	phases=3	Linecode=3p_11kV_100_ABC_Al_o	Length=19.1001	Units=m
New	Line.line_BAG_1167_1168	Bus1=1167	Bus2=1168	phases=3	Linecode=3p_11kV_100_ABC_Al_o	Length=17.5588	Units=m
New	Line.line_BAG_1168_1169	Bus1=1168	Bus2=1169	phases=3	Linecode=3p_11kV_100_ABC_Al_o	Length=1.05245	Units=m
New	Line.line_BAG_1169_1311	Bus1=1169	Bus2=1311	phases=3	Linecode=3p_11kV_100_ABC_Al_o	Length=0.6255	Units=m
New	Line.line_BAG_1170_1171	Bus1=1170	Bus2=1171	phases=3	Linecode=3p_11kV_100_ACSR_Al_o	Length=21.3545	Units=m
New	Line.line_BAG_1171_1172	Bus1=1171	Bus2=1172	phases=3	Linecode=3p_11kV_100_ACSR_Al_o	Length=18.3092	Units=m
New	Line.line_BAG_1172_1173	Bus1=1172	Bus2=1173	phases=3	Linecode=3p_11kV_100_ACSR_Al_o	Length=18.0149	Units=m
New	Line.line_BAG_1173_1174	Bus1=1173	Bus2=1174	phases=3	Linecode=3p_11kV_100_ACSR_Al_o	Length=19.5002	Units=m
New	Line.line_BAG_1174_1175	Bus1=1174	Bus2=1175	phases=3	Linecode=3p_11kV_100_ACSR_Al_o	Length=22.536	Units=m
New	Line.line_BAG_1175_1176	Bus1=1175	Bus2=1176	phases=3	Linecode=3p_11kV_100_ACSR_Al_o	Length=21.8549	Units=m
New	Line.line_BAG_1176_1177	Bus1=1176	Bus2=1177	phases=3	Linecode=3p_11kV_100_ACSR_Al_o	Length=22.5754	Units=m
New	Line.line_BAG_1177_1178	Bus1=1177	Bus2=1178	phases=3	Linecode=3p_11kV_100_ACSR_Al_o	Length=30.5189	Units=m
New	Line.line_BAG_1178_1179	Bus1=1178	Bus2=1179	phases=3	Linecode=3p_11kV_100_ACSR_Al_o	Length=26.3792	Units=m
New	Line.line_BAG_1179_1180	Bus1=1179	Bus2=1180	phases=3	Linecode=3p_11kV_100_ACSR_Al_o	Length=27.7925	Units=m
New	Line.line_BAG_1180_1181	Bus1=1180	Bus2=1181	phases=3	Linecode=3p_11kV_100_ACSR_Al_o	Length=27.3754	Units=m
New	Line.line_BAG_1181_1182	Bus1=1181	Bus2=1182	phases=3	Linecode=3p_11kV_100_ACSR_Al_o	Length=22.81	Units=m
New	Line.line_BAG_1182_1183	Bus1=1182	Bus2=1183	phases=3	Linecode=3p_11kV_100_ACSR_Al_o	Length=20.7054	Units=m
New	Line.line_BAG_1183_1184	Bus1=1183	Bus2=1184	phases=3	Linecode=3p_11kV_100_ACSR_Al_o	Length=22.9426	Units=m
New	Line.line_BAG_1184_1185	Bus1=1184	Bus2=1185	phases=3	Linecode=3p_11kV_100_ACSR_Al_o	Length=19.1021	Units=m
New	Line.line_BAG_1185_1186	Bus1=1185	Bus2=1186	phases=3	Linecode=3p_11kV_100_ACSR_Al_o	Length=29.4407	Units=m
New	Line.line_BAG_1186_1187	Bus1=1186	Bus2=1187	phases=3	Linecode=3p_11kV_100_ACSR_Al_o	Length=24.6829	Units=m
New	Line.line_BAG_1187_1188	Bus1=1187	Bus2=1188	phases=3	Linecode=3p_11kV_100_ACSR_Al_o	Length=27.3133	Units=m
New	Line.line_BAG_1188_1189	Bus1=1188	Bus2=1189	phases=3	Linecode=3p_11kV_100_ACSR_Al_o	Length=25.9372	Units=m
New	Line.line_BAG_1189_1190	Bus1=1189	Bus2=1190	phases=3	Linecode=3p_11kV_100_ACSR_Al_o	Length=38.5479	Units=m
New	Line.line_BAG_1190_1191	Bus1=1190	Bus2=1191	phases=3	Linecode=3p_11kV_100_ACSR_Al_o	Length=31.2559	Units=m
New	Line.line_BAG_1191_1192	Bus1=1191	Bus2=1192	phases=3	Linecode=3p_11kV_100_ACSR_Al_o	Length=15.3936	Units=m
New	Line.line_BAG_1192_1193	Bus1=1192	Bus2=1193	phases=3	Linecode=3p_11kV_100_ACSR_Al_o	Length=29.8052	Units=m
New	Line.line_BAG_1193_1194	Bus1=1193	Bus2=1194	phases=3	Linecode=3p_11kV_100_ACSR_Al_o	Length=25.5721	Units=m
New	Line.line_BAG_1194_1195	Bus1=1194	Bus2=1195	phases=3	Linecode=3p_11kV_100_ACSR_Al_o	Length=24.9421	Units=m
New	Line.line_BAG_1195_1196	Bus1=1195	Bus2=1196	phases=3	Linecode=3p_11kV_100_ACSR_Al_o	Length=21.8404	Units=m
New	Line.line_BAG_1196_1197	Bus1=1196	Bus2=1197	phases=3	Linecode=3p_11kV_100_ACSR_Al_o	Length=23.2918	Units=m
New	Line.line_BAG_1197_1198	Bus1=1197	Bus2=1198	phases=3	Linecode=3p_11kV_100_ACSR_Al_o	Length=22.9033	Units=m
New	Line.line_BAG_1198_1199	Bus1=1198	Bus2=1199	phases=3	Linecode=3p_11kV_100_ACSR_Al_o	Length=22.3789	Units=m
New	Line.line_BAG_1199_1200	Bus1=1199	Bus2=1200	phases=3	Linecode=3p_11kV_100_ACSR_Al_o	Length=19.2645	Units=m
New	Line.line_BAG_1200_1201	Bus1=1200	Bus2=1201	phases=3	Linecode=3p_11kV_100_ACSR_Al_o	Length=24.176	Units=m
New	Line.line_BAG_1201_1202	Bus1=1201	Bus2=1202	phases=3	Linecode=3p_11kV_100_ACSR_Al_o	Length=23.3862	Units=m
New	Line.line_BAG_1202_1203	Bus1=1202	Bus2=1203	phases=3	Linecode=3p_11kV_100_ACSR_Al_o	Length=10.6981	Units=m
New	Line.line_BAG_1203_1204	Bus1=1203	Bus2=1204	phases=3	Linecode=3p_11kV_100_ACSR_Al_o	Length=10.6063	Units=m
New	Line.line_BAG_1204_1205	Bus1=1204	Bus2=1205	phases=3	Linecode=3p_11kV_100_ACSR_Al_o	Length=19.5229	Units=m
New	Line.line_BAG_1205_1206	Bus1=1205	Bus2=1206	phases=3	Linecode=3p_11kV_100_ACSR_Al_o	Length=23.9213	Units=m
New	Line.line_BAG_1206_1207	Bus1=1206	Bus2=1207	phases=3	Linecode=3p_11kV_100_ACSR_Al_o	Length=5.7738	Units=m
New	Line.line_BAG_1207_1313	Bus1=1207	Bus2=1313	phases=3	Linecode=3p_11kV_100_ACSR_Al_o	Length=0.631762	Units=m
New	Line.line_BAG_1208_1209	Bus1=1208	Bus2=1209	phases=3	Linecode=3p_11kV_100_ACSR_Al_o	Length=16.4312	Units=m
New	Line.line_BAG_1210_1208	Bus1=1210	Bus2=1208	phases=3	Linecode=3p_11kV_100_ACSR_Al_o	Length=20.1748	Units=m
New	Line.line_BAG_1210_1314	Bus1=1210	Bus2=1314	phases=3	Linecode=3p_11kV_100_ACSR_Al_o	Length=11.9986	Units=m
New	Line.line_BAG_1211_1315	Bus1=1211	Bus2=1315	phases=3	Linecode=3p_11kV_100_ACSR_Al_o	Length=2.33277	Units=m
New	Line.line_BAG_1212_1213	Bus1=1212	Bus2=1213	phases=3	Linecode=3p_11kV_100_ACSR_Al_o	Length=21.8749	Units=m
New	Line.line_BAG_1213_1214	Bus1=1213	Bus2=1214	phases=3	Linecode=3p_11kV_100_ACSR_Al_o	Length=32.2168	Units=m
New	Line.line_BAG_1215_1156	Bus1=1215	Bus2=1156	phases=3	Linecode=3p_11kV_100_ABC_Al_o	Length=9.88869	Units=m
New	Line.line_BAG_1216_1094	Bus1=1216	Bus2=1094	phases=3	Linecode=3p_11kV_100_ACSR_Al_o	Length=13.0651	Units=m
New	Line.line_BAG_1217_1218	Bus1=1217	Bus2=1218	phases=3	Linecode=3p_11kV_100_XLPE_Al_u	Length=3.84042	Units=m
New	Line.line_BAG_1218_1219	Bus1=1218	Bus2=1219	phases=3	Linecode=3p_11kV_100_XLPE_Al_u	Length=12.8003	Units=m
New	Line.line_BAG_1219_1001	Bus1=1219	Bus2=1001	phases=3	Linecode=3p_11kV_100_XLPE_Al_u	Length=0.221922	Units=m
New	Line.line_BAG_1220_1221	Bus1=1220	Bus2=1221	phases=3	Linecode=3p_11kV_100_XLPE_Al_u	Length=0.971249	Units=m
New	Line.line_BAG_1221_1222	Bus1=1221	Bus2=1222	phases=3	Linecode=3p_11kV_100_XLPE_Al_u	Length=2.32993	Units=m
New	Line.line_BAG_1222_1223	Bus1=1222	Bus2=1223	phases=3	Linecode=3p_11kV_100_XLPE_Al_u	Length=6.44363	Units=m
New	Line.line_BAG_1223_1002	Bus1=1223	Bus2=1002	phases=3	Linecode=3p_11kV_100_XLPE_Al_u	Length=2.86776	Units=m
New	Line.line_BAG_1224_1225	Bus1=1224	Bus2=1225	phases=3	Linecode=3p_11kV_100_XLPE_Al_u	Length=6.16446	Units=m
New	Line.line_BAG_1225_1226	Bus1=1225	Bus2=1226	phases=3	Linecode=3p_11kV_100_XLPE_Al_u	Length=0.557516	Units=m
New	Line.line_BAG_1226_1227	Bus1=1226	Bus2=1227	phases=3	Linecode=3p_11kV_100_XLPE_Al_u	Length=5.92594	Units=m
New	Line.line_BAG_1227_1228	Bus1=1227	Bus2=1228	phases=3	Linecode=3p_11kV_100_XLPE_Al_u	Length=1.6465	Units=m
New	Line.line_BAG_1228_1003	Bus1=1228	Bus2=1003	phases=3	Linecode=3p_11kV_100_XLPE_Al_u	Length=0.802436	Units=m
New	Line.line_BAG_1229_1232	Bus1=1229	Bus2=1232	phases=3	Linecode=3p_11kV_100_XLPE_Al_u	Length=1.72184	Units=m
New	Line.line_BAG_1230_1007	Bus1=1230	Bus2=1007	phases=3	Linecode=3p_11kV_100_XLPE_Al_u	Length=2.95163	Units=m
New	Line.line_BAG_1231_1006	Bus1=1231	Bus2=1006	phases=3	Linecode=3p_11kV_100_XLPE_Al_u	Length=6.22796	Units=m
New	Line.line_BAG_1232_1008	Bus1=1232	Bus2=1008	phases=3	Linecode=3p_11kV_100_XLPE_Al_u	Length=27.0288	Units=m
New	Line.line_BAG_1233_1235	Bus1=1233	Bus2=1235	phases=3	Linecode=3p_11kV_100_XLPE_Al_u	Length=1.7834	Units=m
New	Line.line_BAG_1234_1231	Bus1=1234	Bus2=1231	phases=3	Linecode=3p_11kV_100_XLPE_Al_u	Length=32.5446	Units=m
New	Line.line_BAG_1235_1236	Bus1=1235	Bus2=1236	phases=3	Linecode=3p_11kV_100_XLPE_Al_u	Length=0.869325	Units=m
New	Line.line_BAG_1236_1004	Bus1=1236	Bus2=1004	phases=3	Linecode=3p_11kV_100_XLPE_Al_u	Length=0.758061	Units=m
New	Line.line_BAG_1237_1005	Bus1=1237	Bus2=1005	phases=3	Linecode=3p_11kV_100_XLPE_Al_u	Length=26.2491	Units=m
New	Line.line_BAG_1238_1237	Bus1=1238	Bus2=1237	phases=3	Linecode=3p_11kV_100_XLPE_Al_u	Length=0.536392	Units=m
New	Line.line_BAG_1239_1238	Bus1=1239	Bus2=1238	phases=3	Linecode=3p_11kV_100_XLPE_Al_u	Length=1.62357	Units=m
New	Line.line_BAG_1240_1048	Bus1=1240	Bus2=1048	phases=3	Linecode=3p_11kV_100_ACSR_Al_o	Length=4.30564	Units=m
New	Line.line_BAG_1241_1240	Bus1=1241	Bus2=1240	phases=3	Linecode=3p_11kV_100_ACSR_Al_o	Length=21.8366	Units=m
New	Line.line_BAG_1242_1245	Bus1=1242	Bus2=1245	phases=3	Linecode=3p_11kV_100_ACSR_Al_o	Length=29.052	Units=m
New	Line.line_BAG_1243_1250	Bus1=1243	Bus2=1250	phases=3	Linecode=3p_11kV_100_XLPE_Al_u	Length=15.5318	Units=m
New	Line.line_BAG_1244_1047	Bus1=1244	Bus2=1047	phases=3	Linecode=3p_11kV_100_ACSR_Al_o	Length=8.27847	Units=m
New	Line.line_BAG_1245_1049	Bus1=1245	Bus2=1049	phases=3	Linecode=3p_11kV_100_ACSR_Al_o	Length=3.07425	Units=m
New	Line.line_BAG_1246_1248	Bus1=1246	Bus2=1248	phases=3	Linecode=3p_11kV_100_ACSR_Al_o	Length=22.8304	Units=m
New	Line.line_BAG_1247_1244	Bus1=1247	Bus2=1244	phases=3	Linecode=3p_11kV_100_ACSR_Al_o	Length=24.4677	Units=m
New	Line.line_BAG_1248_1050	Bus1=1248	Bus2=1050	phases=3	Linecode=3p_11kV_100_ACSR_Al_o	Length=0.301353	Units=m
New	Line.line_BAG_1249_1046	Bus1=1249	Bus2=1046	phases=3	Linecode=3p_11kV_100_ACSR_Al_o	Length=3.97851	Units=m
New	Line.line_BAG_1250_1009	Bus1=1250	Bus2=1009	phases=3	Linecode=3p_11kV_100_XLPE_Al_u	Length=14.0451	Units=m
New	Line.line_BAG_1251_1051	Bus1=1251	Bus2=1051	phases=3	Linecode=3p_11kV_100_ACSR_Al_o	Length=20.0542	Units=m
New	Line.line_BAG_1252_1249	Bus1=1252	Bus2=1249	phases=3	Linecode=3p_11kV_100_ACSR_Al_o	Length=28.3285	Units=m
New	Line.line_BAG_1253_1256	Bus1=1253	Bus2=1256	phases=3	Linecode=3p_11kV_100_ACSR_Al_o	Length=26.708	Units=m
New	Line.line_BAG_1254_1252	Bus1=1254	Bus2=1252	phases=3	Linecode=3p_11kV_100_ACSR_Al_o	Length=26.3878	Units=m
New	Line.line_BAG_1255_1261	Bus1=1255	Bus2=1261	phases=3	Linecode=3p_11kV_100_XLPE_Al_u	Length=19.3202	Units=m
New	Line.line_BAG_1256_1052	Bus1=1256	Bus2=1052	phases=3	Linecode=3p_11kV_100_ACSR_Al_o	Length=7.57286	Units=m
New	Line.line_BAG_1257_1254	Bus1=1257	Bus2=1254	phases=3	Linecode=3p_11kV_100_ACSR_Al_o	Length=35.8769	Units=m
New	Line.line_BAG_1258_1045	Bus1=1258	Bus2=1045	phases=3	Linecode=3p_11kV_100_ACSR_Al_o	Length=0.265024	Units=m
New	Line.line_BAG_1259_1258	Bus1=1259	Bus2=1258	phases=3	Linecode=3p_11kV_100_ACSR_Al_o	Length=13.6066	Units=m
New	Line.line_BAG_1260_1053	Bus1=1260	Bus2=1053	phases=3	Linecode=3p_11kV_100_ACSR_Al_o	Length=19.1956	Units=m
New	Line.line_BAG_1261_1010	Bus1=1261	Bus2=1010	phases=3	Linecode=3p_11kV_100_XLPE_Al_u	Length=2.71928	Units=m
New	Line.line_BAG_1262_1044	Bus1=1262	Bus2=1044	phases=3	Linecode=3p_11kV_100_ACSR_Al_o	Length=19.3082	Units=m
New	Line.line_BAG_1263_1262	Bus1=1263	Bus2=1262	phases=3	Linecode=3p_11kV_100_ACSR_Al_o	Length=17.6705	Units=m
New	Line.line_BAG_1264_1266	Bus1=1264	Bus2=1266	phases=3	Linecode=3p_11kV_100_ACSR_Al_o	Length=17.8009	Units=m
New	Line.line_BAG_1265_1011	Bus1=1265	Bus2=1011	phases=3	Linecode=3p_11kV_100_XLPE_Al_u	Length=7.71185	Units=m
New	Line.line_BAG_1266_1054	Bus1=1266	Bus2=1054	phases=3	Linecode=3p_11kV_100_ACSR_Al_o	Length=10.5465	Units=m
New	Line.line_BAG_1267_1021	Bus1=1267	Bus2=1021	phases=3	Linecode=3p_11kV_100_XLPE_Al_u	Length=2.18266	Units=m
New	Line.line_BAG_1268_1279	Bus1=1268	Bus2=1279	phases=3	Linecode=3p_11kV_100_XLPE_Al_u	Length=36.8843	Units=m
New	Line.line_BAG_1269_1055	Bus1=1269	Bus2=1055	phases=3	Linecode=3p_11kV_100_ACSR_Al_o	Length=22.4789	Units=m
New	Line.line_BAG_1270_1267	Bus1=1270	Bus2=1267	phases=3	Linecode=3p_11kV_100_XLPE_Al_u	Length=27.0438	Units=m
New	Line.line_BAG_1271_1020	Bus1=1271	Bus2=1020	phases=3	Linecode=3p_11kV_100_XLPE_Al_u	Length=5.93556	Units=m
New	Line.line_BAG_1272_1019	Bus1=1272	Bus2=1019	phases=3	Linecode=3p_11kV_100_XLPE_Al_u	Length=0.207366	Units=m
New	Line.line_BAG_1273_1277	Bus1=1273	Bus2=1277	phases=3	Linecode=3p_11kV_100_XLPE_Al_u	Length=12.2628	Units=m
New	Line.line_BAG_1274_1276	Bus1=1274	Bus2=1276	phases=3	Linecode=3p_11kV_100_ACSR_Al_o	Length=4.9338	Units=m
New	Line.line_BAG_1275_1272	Bus1=1275	Bus2=1272	phases=3	Linecode=3p_11kV_100_XLPE_Al_u	Length=22.505	Units=m
New	Line.line_BAG_1276_1278	Bus1=1276	Bus2=1278	phases=3	Linecode=3p_11kV_100_ACSR_Al_o	Length=14.9943	Units=m
New	Line.line_BAG_1277_1012	Bus1=1277	Bus2=1012	phases=3	Linecode=3p_11kV_100_XLPE_Al_u	Length=4.62707	Units=m
New	Line.line_BAG_1278_1056	Bus1=1278	Bus2=1056	phases=3	Linecode=3p_11kV_100_ACSR_Al_o	Length=17.9859	Units=m
New	Line.line_BAG_1279_1022	Bus1=1279	Bus2=1022	phases=3	Linecode=3p_11kV_100_XLPE_Al_u	Length=5.39392	Units=m
New	Line.line_BAG_1280_1016	Bus1=1280	Bus2=1016	phases=3	Linecode=3p_11kV_100_XLPE_Al_u	Length=1.8055	Units=m
New	Line.line_BAG_1281_1283	Bus1=1281	Bus2=1283	phases=3	Linecode=3p_11kV_100_XLPE_Al_u	Length=9.38336	Units=m
New	Line.line_BAG_1282_1287	Bus1=1282	Bus2=1287	phases=3	Linecode=3p_11kV_100_ACSR_Al_o	Length=22.3906	Units=m
New	Line.line_BAG_1283_1013	Bus1=1283	Bus2=1013	phases=3	Linecode=3p_11kV_100_XLPE_Al_u	Length=3.82515	Units=m
New	Line.line_BAG_1284_1285	Bus1=1284	Bus2=1285	phases=3	Linecode=3p_11kV_100_XLPE_Al_u	Length=7.73005	Units=m
New	Line.line_BAG_1285_1014	Bus1=1285	Bus2=1014	phases=3	Linecode=3p_11kV_100_XLPE_Al_u	Length=4.18916	Units=m
New	Line.line_BAG_1286_1015	Bus1=1286	Bus2=1015	phases=3	Linecode=3p_11kV_100_XLPE_Al_u	Length=34.5675	Units=m
New	Line.line_BAG_1287_1057	Bus1=1287	Bus2=1057	phases=3	Linecode=3p_11kV_100_ACSR_Al_o	Length=4.23424	Units=m
New	Line.line_BAG_1288_1289	Bus1=1288	Bus2=1289	phases=3	Linecode=3p_11kV_100_ACSR_Al_o	Length=22.3554	Units=m
New	Line.line_BAG_1289_1058	Bus1=1289	Bus2=1058	phases=3	Linecode=3p_11kV_100_ACSR_Al_o	Length=2.02181	Units=m
New	Line.line_BAG_1290_1059	Bus1=1290	Bus2=1059	phases=3	Linecode=3p_11kV_100_ACSR_Al_o	Length=17.1938	Units=m
New	Line.line_BAG_1291_1292	Bus1=1291	Bus2=1292	phases=3	Linecode=3p_11kV_100_ACSR_Al_o	Length=23.4228	Units=m
New	Line.line_BAG_1292_1293	Bus1=1292	Bus2=1293	phases=3	Linecode=3p_11kV_100_ACSR_Al_o	Length=20.4215	Units=m
New	Line.line_BAG_1293_1060	Bus1=1293	Bus2=1060	phases=3	Linecode=3p_11kV_100_ACSR_Al_o	Length=13.1064	Units=m
New	Line.line_BAG_1294_1295	Bus1=1294	Bus2=1295	phases=3	Linecode=3p_11kV_100_ACSR_Al_o	Length=16.6168	Units=m
New	Line.line_BAG_1295_1061	Bus1=1295	Bus2=1061	phases=3	Linecode=3p_11kV_100_ACSR_Al_o	Length=21.607	Units=m
New	Line.line_BAG_1296_1297	Bus1=1296	Bus2=1297	phases=3	Linecode=3p_11kV_100_ACSR_Al_o	Length=26.9617	Units=m
New	Line.line_BAG_1297_1062	Bus1=1297	Bus2=1062	phases=3	Linecode=3p_11kV_100_ACSR_Al_o	Length=28.1719	Units=m
New	Line.line_BAG_1298_1299	Bus1=1298	Bus2=1299	phases=3	Linecode=3p_11kV_100_ACSR_Al_o	Length=24.7853	Units=m
New	Line.line_BAG_1299_1063	Bus1=1299	Bus2=1063	phases=3	Linecode=3p_11kV_100_ACSR_Al_o	Length=15.3517	Units=m
New	Line.line_BAG_1300_1301	Bus1=1300	Bus2=1301	phases=3	Linecode=3p_11kV_100_ACSR_Al_o	Length=26.4178	Units=m
New	Line.line_BAG_1301_1064	Bus1=1301	Bus2=1064	phases=3	Linecode=3p_11kV_100_ACSR_Al_o	Length=15.2706	Units=m
New	Line.line_BAG_1302_1303	Bus1=1302	Bus2=1303	phases=3	Linecode=3p_11kV_100_ACSR_Al_o	Length=29.698	Units=m
New	Line.line_BAG_1303_1065	Bus1=1303	Bus2=1065	phases=3	Linecode=3p_11kV_100_ACSR_Al_o	Length=11.9654	Units=m
New	Line.line_BAG_1304_1066	Bus1=1304	Bus2=1066	phases=3	Linecode=3p_11kV_100_ACSR_Al_o	Length=6.70538	Units=m
New	Line.line_BAG_1305_1306	Bus1=1305	Bus2=1306	phases=3	Linecode=3p_11kV_100_ACSR_Al_o	Length=19.3347	Units=m
New	Line.line_BAG_1306_1067	Bus1=1306	Bus2=1067	phases=3	Linecode=3p_11kV_100_ACSR_Al_o	Length=9.95539	Units=m
New	Line.line_BAG_1307_1308	Bus1=1307	Bus2=1308	phases=3	Linecode=3p_11kV_100_ACSR_Al_o	Length=26.961	Units=m
New	Line.line_BAG_1308_1068	Bus1=1308	Bus2=1068	phases=3	Linecode=3p_11kV_100_ACSR_Al_o	Length=9.03294	Units=m
New	Line.line_BAG_1309_1069	Bus1=1309	Bus2=1069	phases=3	Linecode=3p_11kV_100_ACSR_Al_o	Length=12.6259	Units=m
New	Line.line_BAG_1310_1125	Bus1=1310	Bus2=1125	phases=3	Linecode=3p_11kV_100_ACSR_Al_o	Length=22.4702	Units=m
New	Line.line_BAG_1311_1312	Bus1=1311	Bus2=1312	phases=3	Linecode=3p_11kV_100_ABC_Al_o	Length=0.390256	Units=m
New	Line.line_BAG_1312_1170	Bus1=1312	Bus2=1170	phases=3	Linecode=3p_11kV_100_ABC_Al_o	Length=12.2461	Units=m
New	Line.line_BAG_1313_1210	Bus1=1313	Bus2=1210	phases=3	Linecode=3p_11kV_100_ACSR_Al_o	Length=12.9917	Units=m
New	Line.line_BAG_1314_1211	Bus1=1314	Bus2=1211	phases=3	Linecode=3p_11kV_100_ACSR_Al_o	Length=2.75239	Units=m
New	Line.line_BAG_1315_1212	Bus1=1315	Bus2=1212	phases=3	Linecode=3p_11kV_100_ACSR_Al_o	Length=7.57119	Units=m
