data_files/feeders/Baneshwor_SS_Feeders/data_files/Lines/Lines_2.txt
New	Line.line_BAN_102_2196	Bus1=102	Bus2=2196	phases=3	Linecode=3p_11kV_240_XLPE_Al_u	Length=5.93802	Units=m
New	Line.line_BAN_2001_2197	Bus1=2001	Bus2=2197	phases=3	Linecode=3p_11kV_240_XLPE_Al_u	Length=4.42508	Units=m
New	Line.line_BAN_2002_2198	Bus1=2002	Bus2=2198	phases=3	Linecode=3p_11kV_240_XLPE_Al_u	Length=1.60342	Units=m
New	Line.line_BAN_2003_2202	Bus1=2003	Bus2=2202	phases=3	Linecode=3p_11kV_240_XLPE_Al_u	Length=2.84546	Units=m
New	Line.line_BAN_2004_2206	Bus1=2004	Bus2=2206	phases=3	Linecode=3p_11kV_240_XLPE_Al_u	Length=2.41901	Units=m
New	Line.line_BAN_2005_2212	Bus1=2005	Bus2=2212	phases=3	Linecode=3p_11kV_240_XLPE_Al_u	Length=5.19985	Units=m
New	Line.line_BAN_2006_2216	Bus1=2006	Bus2=2216	phases=3	Linecode=3p_11kV_240_XLPE_Al_u	Length=5.61229	Units=m
New	Line.line_BAN_2007_2218	Bus1=2007	Bus2=2218	phases=3	Linecode=3p_11kV_240_XLPE_Al_u	Length=3.17258	Units=m
New	Line.line_BAN_2008_2220	Bus1=2008	Bus2=2220	phases=3	Linecode=3p_11kV_240_XLPE_Al_u	Length=3.6253	Units=m
New	Line.line_BAN_2009_2224	Bus1=2009	Bus2=2224	phases=3	Linecode=3p_11kV_100_ACSR_Al_o	Length=22.6521	Units=m
New	Line.line_BAN_2010_2011	Bus1=2010	Bus2=2011	phases=3	Linecode=3p_11kV_100_ACSR_Al_o	Length=28.6144	Units=m
New	Line.line_BAN_2011_2226	Bus1=2011	Bus2=2226	phases=3	Linecode=3p_11kV_100_ACSR_Al_o	Length=3.3407	Units=m
New	Line.line_BAN_2012_2227	Bus1=2012	Bus2=2227	phases=3	Linecode=3p_11kV_100_ACSR_Al_o	Length=10.5232	Units=m
New	Line.line_BAN_2013_2228	Bus1=2013	Bus2=2228	phases=3	Linecode=3p_11kV_100_ACSR_Al_o	Length=0.438288	Units=m
New	Line.line_BAN_2014_2229	Bus1=2014	Bus2=2229	phases=3	Linecode=3p_11kV_100_ACSR_Al_o	Length=3.20823	Units=m
New	Line.line_BAN_2015_2231	Bus1=2015	Bus2=2231	phases=3	Linecode=3p_11kV_100_ACSR_Al_o	Length=22.0172	Units=m
New	Line.line_BAN_2016_2232	Bus1=2016	Bus2=2232	phases=3	Linecode=3p_11kV_100_ACSR_Al_o	Length=21.5107	Units=m
New	Line.line_BAN_2017_2233	Bus1=2017	Bus2=2233	phases=3	Linecode=3p_11kV_100_ACSR_Al_o	Length=0.45173	Units=m
New	Line.line_BAN_2018_2236	Bus1=2018	Bus2=2236	phases=3	Linecode=3p_11kV_100_ACSR_Al_o	Length=0.079297	Units=m
New	Line.line_BAN_2019_2238	Bus1=2019	Bus2=2238	phases=3	Linecode=3p_11kV_240_XLPE_Al_u	Length=1.28491	Units=m
New	Line.line_BAN_2020_2021	Bus1=2020	Bus2=2021	phases=3	Linecode=3p_11kV_240_XLPE_Al_u	Length=23.0411	Units=m
New	Line.line_BAN_2021_2022	Bus1=2021	Bus2=2022	phases=3	Linecode=3p_11kV_100_ACSR_Al_o	Length=19.4663	Units=m
New	Line.line_BAN_2022_2023	Bus1=2022	Bus2=2023	phases=3	Linecode=3p_11kV_100_ACSR_Al_o	Length=23.5064	Units=m
New	Line.line_BAN_2023_2024	Bus1=2023	Bus2=2024	phases=3	Linecode=3p_11kV_100_ACSR_Al_o	Length=19.5024	Units=m
New	Line.line_BAN_2024_2025	Bus1=2024	Bus2=2025	phases=3	Linecode=3p_11kV_100_ACSR_Al_o	Length=17.5605	Units=m
New	Line.line_BAN_2025_2026	Bus1=2025	Bus2=2026	phases=3	Linecode=3p_11kV_100_ACSR_Al_o	Length=20.2208	Units=m
New	Line.line_BAN_2026_2027	Bus1=2026	Bus2=2027	phases=3	Linecode=3p_11kV_100_ACSR_Al_o	Length=19.2092	Units=m
New	Line.line_BAN_2027_2028	Bus1=2027	Bus2=2028	phases=3	Linecode=3p_11kV_100_ACSR_Al_o	Length=19.0136	Units=m
New	Line.line_BAN_2028_2029	Bus1=2028	Bus2=2029	phases=3	Linecode=3p_11kV_100_ACSR_Al_o	Length=27.7359	Units=m
New	Line.line_BAN_2029_2030	Bus1=2029	Bus2=2030	phases=3	Linecode=3p_11kV_100_ACSR_Al_o	Length=28.0456	Units=m
New	Line.line_BAN_2030_2031	Bus1=2030	Bus2=2031	phases=3	Linecode=3p_11kV_100_ACSR_Al_o	Length=19.3352	Units=m
New	Line.line_BAN_2031_2032	Bus1=2031	Bus2=2032	phases=3	Linecode=3p_11kV_100_ACSR_Al_o	Length=23.4026	Units=m
New	Line.line_BAN_2032_2052	Bus1=2032	Bus2=2052	phases=3	Linecode=3p_11kV_100_ACSR_Al_o	Length=18.9445	Units=m
New	Line.line_BAN_2033_2034	Bus1=2033	Bus2=2034	phases=3	Linecode=3p_11kV_100_ACSR_Al_o	Length=21.1184	Units=m
New	Line.line_BAN_2034_2035	Bus1=2034	Bus2=2035	phases=3	Linecode=3p_11kV_100_ACSR_Al_o	Length=13.3952	Units=m
New	Line.line_BAN_2035_2036	Bus1=2035	Bus2=2036	phases=3	Linecode=3p_11kV_100_ACSR_Al_o	Length=28.7279	Units=m
New	Line.line_BAN_2036_2037	Bus1=2036	Bus2=2037	phases=3	Linecode=3p_11kV_100_ACSR_Al_o	Length=28.3625	Units=m
New	Line.line_BAN_2037_2038	Bus1=2037	Bus2=2038	phases=3	Linecode=3p_11kV_100_ACSR_Al_o	Length=22.1462	Units=m
New	Line.line_BAN_2038_2039	Bus1=2038	Bus2=2039	phases=3	Linecode=3p_11kV_100_ACSR_Al_o	Length=33.6519	Units=m
New	Line.line_BAN_2039_2040	Bus1=2039	Bus2=2040	phases=3	Linecode=3p_11kV_100_ACSR_Al_o	Length=23.0208	Units=m
New	Line.line_BAN_2040_2041	Bus1=2040	Bus2=2041	phases=3	Linecode=3p_11kV_100_ACSR_Al_o	Length=17.8258	Units=m
New	Line.line_BAN_2041_2042	Bus1=2041	Bus2=2042	phases=3	Linecode=3p_11kV_100_ACSR_Al_o	Length=24.6464	Units=m
New	Line.line_BAN_2042_2043	Bus1=2042	Bus2=2043	phases=3	Linecode=3p_11kV_100_ACSR_Al_o	Length=18.9939	Units=m
New	Line.line_BAN_2043_2044	Bus1=2043	Bus2=2044	phases=3	Linecode=3p_11kV_100_ACSR_Al_o	Length=21.0106	Units=m
New	Line.line_BAN_2044_2045	Bus1=2044	Bus2=2045	phases=3	Linecode=3p_11kV_100_ACSR_Al_o	Length=21.4784	Units=m
New	Line.line_BAN_2045_2046	Bus1=2045	Bus2=2046	phases=3	Linecode=3p_11kV_100_ACSR_Al_o	Length=22.0877	Units=m
New	Line.line_BAN_2046_2060	Bus1=2046	Bus2=2060	phases=3	Linecode=3p_11kV_100_ACSR_Al_o	Length=21.5386	Units=m
New	Line.line_BAN_2047_2048	Bus1=2047	Bus2=2048	phases=3	Linecode=3p_11kV_100_ACSR_Al_o	Length=14.6296	Units=m
New	Line.line_BAN_2048_2049	Bus1=2048	Bus2=2049	phases=3	Linecode=3p_11kV_100_ACSR_Al_o	Length=16.7442	Units=m
New	Line.line_BAN_2049_2050	Bus1=2049	Bus2=2050	phases=3	Linecode=3p_11kV_100_ACSR_Al_o	Length=11.7013	Units=m
New	Line.line_BAN_2050_2051	Bus1=2050	Bus2=2051	phases=3	Linecode=3p_11kV_100_ACSR_Al_o	Length=15.6422	Units=m
New	Line.line_BAN_2052_2033	Bus1=2052	Bus2=2033	phases=3	Linecode=3p_11kV_100_ACSR_Al_o	Length=23.5061	Units=m
New	Line.line_BAN_2052_2053	Bus1=2052	Bus2=2053	phases=3	Linecode=3p_11kV_100_ACSR_Al_o	Length=23.7447	Units=m
New	Line.line_BAN_2053_2054	Bus1=2053	Bus2=2054	phases=3	Linecode=3p_11kV_100_ACSR_Al_o	Length=22.4204	Units=m
New	Line.line_BAN_2054_2195	Bus1=2054	Bus2=2195	phases=3	Linecode=3p_11kV_100_ACSR_Al_o	Length=25.1874	Units=m
New	Line.line_BAN_2055_2056	Bus1=2055	Bus2=2056	phases=3	Linecode=3p_11kV_100_ACSR_Al_o	Length=13.4825	Units=m
New	Line.line_BAN_2056_2057	Bus1=2056	Bus2=2057	phases=3	Linecode=3p_11kV_100_ACSR_Al_o	Length=10.372	Units=m
New	Line.line_BAN_2057_2058	Bus1=2057	Bus2=2058	phases=3	Linecode=3p_11kV_100_ACSR_Al_o	Length=18.9649	Units=m
New	Line.line_BAN_2058_2059	Bus1=2058	Bus2=2059	phases=3	Linecode=3p_11kV_100_ACSR_Al_o	Length=20.825	Units=m
New	Line.line_BAN_2060_2047	Bus1=2060	Bus2=2047	phases=3	Linecode=3p_11kV_100_ACSR_Al_o	Length=17.7468	Units=m
New	Line.line_BAN_2060_2061	Bus1=2060	Bus2=2061	phases=3	Linecode=3p_11kV_100_ACSR_Al_o	Length=13.2854	Units=m
New	Line.line_BAN_2061_2062	Bus1=2061	Bus2=2062	phases=3	Linecode=3p_11kV_100_ACSR_Al_o	Length=18.4773	Units=m
New	Line.line_BAN_2062_2063	Bus1=2062	Bus2=2063	phases=3	Linecode=3p_11kV_100_ACSR_Al_o	Length=20.3033	Units=m
New	Line.line_BAN_2063_2064	Bus1=2063	Bus2=2064	phases=3	Linecode=3p_11kV_100_ACSR_Al_o	Length=11.3183	Units=m
New	Line.line_BAN_2064_2065	Bus1=2064	Bus2=2065	phases=3	Linecode=3p_11kV_100_ACSR_Al_o	Length=10.3958	Units=m
New	Line.line_BAN_2065_2066	Bus1=2065	Bus2=2066	phases=3	Linecode=3p_11kV_100_ACSR_Al_o	Length=21.3232	Units=m
New	Line.line_BAN_2066_2067	Bus1=2066	Bus2=2067	phases=3	Linecode=3p_11kV_100_ACSR_Al_o	Length=21.4282	Units=m
New	Line.line_BAN_2067_2068	Bus1=2067	Bus2=2068	phases=3	Linecode=3p_11kV_100_ACSR_Al_o	Length=16.4222	Units=m
New	Line.line_BAN_2068_2069	Bus1=2068	Bus2=2069	phases=3	Linecode=3p_11kV_100_ACSR_Al_o	Length=26.332	Units=m
New	Line.line_BAN_2069_2070	Bus1=2069	Bus2=2070	phases=3	Linecode=3p_11kV_100_ACSR_Al_o	Length=9.97434	Units=m
New	Line.line_BAN_2070_2071	Bus1=2070	Bus2=2071	phases=3	Linecode=3p_11kV_100_ACSR_Al_o	Length=14.3855	Units=m
New	Line.line_BAN_2071_2072	Bus1=2071	Bus2=2072	phases=3	Linecode=3p_11kV_100_ACSR_Al_o	Length=22.4734	Units=m
New	Line.line_BAN_2072_2073	Bus1=2072	Bus2=2073	phases=3	Linecode=3p_11kV_100_ACSR_Al_o	Length=24.3317	Units=m
New	Line.line_BAN_2073_2074	Bus1=2073	Bus2=2074	phases=3	Linecode=3p_11kV_100_ACSR_Al_o	Length=18.5953	Units=m
New	Line.line_BAN_2074_2075	Bus1=2074	Bus2=2075	phases=3	Linecode=3p_11kV_100_ACSR_Al_o	Length=27.0547	Units=m
New	Line.line_BAN_2075_2076	Bus1=2075	Bus2=2076	phases=3	Linecode=3p_11kV_100_ACSR_Al_o	Length=20.9673	Units=m
New	Line.line_BAN_2076_2077	Bus1=2076	Bus2=2077	phases=3	Linecode=3p_11kV_100_ACSR_Al_o	Length=17.9117	Units=m
New	Line.line_BAN_2077_2078	Bus1=2077	Bus2=2078	phases=3	Linecode=3p_11kV_100_ACSR_Al_o	Length=25.8678	Units=m
New	Line.line_BAN_2078_2079	Bus1=2078	Bus2=2079	phases=3	Linecode=3p_11kV_100_ACSR_Al_o	Length=24.3978	Units=m
New	Line.line_BAN_2079_2080	Bus1=2079	Bus2=2080	phases=3	Linecode=3p_11kV_100_ACSR_Al_o	Length=27.54	Units=m
New	Line.line_BAN_2080_2081	Bus1=2080	Bus2=2081	phases=3	Linecode=3p_11kV_100_ACSR_Al_o	Length=23.8463	Units=m
New	Line.line_BAN_2081_2148	Bus1=2081	Bus2=2148	phases=3	Linecode=3p_11kV_100_ACSR_Al_o	Length=11.7476	Units=m
New	Line.line_BAN_2082_2083	Bus1=2082	Bus2=2083	phases=3	Linecode=3p_11kV_100_ACSR_Al_o	Length=34.2546	Units=m
New	Line.line_BAN_2083_2084	Bus1=2083	Bus2=2084	phases=3	Linecode=3p_11kV_100_ACSR_Al_o	Length=29.6125	Units=m
New	Line.line_BAN_2084_2085	Bus1=2084	Bus2=2085	phases=3	Linecode=3p_11kV_100_ACSR_Al_o	Length=22.6104	Units=m
New	Line.line_BAN_2085_2086	Bus1=2085	Bus2=2086	phases=3	Linecode=3p_11kV_100_ACSR_Al_o	Length=25.9496	Units=m
New	Line.line_BAN_2086_2087	Bus1=2086	Bus2=2087	phases=3	Linecode=3p_11kV_100_ACSR_Al_o	Length=15.7293	Units=m
New	Line.line_BAN_2087_2088	Bus1=2087	Bus2=2088	phases=3	Linecode=3p_11kV_100_ACSR_Al_o	Length=3.99976	Units=m
New	Line.line_BAN_2088_2089	Bus1=2088	Bus2=2089	phases=3	Linecode=3p_11kV_100_ACSR_Al_o	Length=31.6998	Units=m
New	Line.line_BAN_2089_2090	Bus1=2089	Bus2=2090	phases=3	Linecode=3p_11kV_100_ACSR_Al_o	Length=23.2523	Units=m
New	Line.line_BAN_2090_2091	Bus1=2090	Bus2=2091	phases=3	Linecode=3p_11kV_100_ACSR_Al_o	Length=22.8562	Units=m
New	Line.line_BAN_2091_2092	Bus1=2091	Bus2=2092	phases=3	Linecode=3p_11kV_100_ACSR_Al_o	Length=21.2504	Units=m
New	Line.line_BAN_2092_2093	Bus1=2092	Bus2=2093	phases=3	Linecode=3p_11kV_100_ACSR_Al_o	Length=21.5911	Units=m
New	Line.line_BAN_2093_2094	Bus1=2093	Bus2=2094	phases=3	Linecode=3p_11kV_100_ACSR_Al_o	Length=21.0015	Units=m
New	Line.line_BAN_2094_2095	Bus1=2094	Bus2=2095	phases=3	Linecode=3p_11kV_100_ACSR_Al_o	Length=15.2668	Units=m
New	Line.line_BAN_2095_2096	Bus1=2095	Bus2=2096	phases=3	Linecode=3p_11kV_100_ACSR_Al_o	Length=21.3615	Units=m
New	Line.line_BAN_2096_2097	Bus1=2096	Bus2=2097	phases=3	Linecode=3p_11kV_100_ACSR_Al_o	Length=20	Units=m
New	Line.line_BAN_2097_2098	Bus1=2097	Bus2=2098	phases=3	Linecode=3p_11kV_100_ACSR_Al_o	Length=20.8826	Units=m
New	Line.line_BAN_2098_2242	Bus1=2098	Bus2=2242	phases=3	Linecode=3p_11kV_100_ACSR_Al_o	Length=10.4251	Units=m
New	Line.line_BAN_2099_2100	Bus1=2099	Bus2=2100	phases=3	Linecode=3p_11kV_100_ACSR_Al_o	Length=5.71801	Units=m
New	Line.line_BAN_2100_2101	Bus1=2100	Bus2=2101	phases=3	Linecode=3p_11kV_100_ACSR_Al_o	Length=15.8198	Units=m
New	Line.line_BAN_2101_2102	Bus1=2101	Bus2=2102	phases=3	Linecode=3p_11kV_100_ACSR_Al_o	Length=24.5766	Units=m
New	Line.line_BAN_2102_2103	Bus1=2102	Bus2=2103	phases=3	Linecode=3p_11kV_100_ACSR_Al_o	Length=17.3449	Units=m
New	Line.line_BAN_2103_2104	Bus1=2103	Bus2=2104	phases=3	Linecode=3p_11kV_100_ACSR_Al_o	Length=19.4265	Units=m
New	Line.line_BAN_2104_2105	Bus1=2104	Bus2=2105	phases=3	Linecode=3p_11kV_100_ACSR_Al_o	Length=19.1097	Units=m
New	Line.line_BAN_2105_2106	Bus1=2105	Bus2=2106	phases=3	Linecode=3p_11kV_100_ACSR_Al_o	Length=17.4925	Units=m
New	Line.line_BAN_2106_2107	Bus1=2106	Bus2=2107	phases=3	Linecode=3p_11kV_100_ACSR_Al_o	Length=14.7712	Units=m
New	Line.line_BAN_2107_2108	Bus1=2107	Bus2=2108	phases=3	Linecode=3p_11kV_100_ACSR_Al_o	Length=20.8827	Units=m
New	Line.line_BAN_2108_2109	Bus1=2108	Bus2=2109	phases=3	Linecode=3p_11kV_100_ACSR_Al_o	Length=20.2594	Units=m
New	Line.line_BAN_2109_2110	Bus1=2109	Bus2=2110	phases=3	Linecode=3p_11kV_100_ACSR_Al_o	Length=29.2537	Units=m
New	Line.line_BAN_2110_2111	Bus1=2110	Bus2=2111	phases=3	Linecode=3p_11kV_100_ACSR_Al_o	Length=8.26521	Units=m
New	Line.line_BAN_2111_2112	Bus1=2111	Bus2=2112	phases=3	Linecode=3p_11kV_100_ACSR_Al_o	Length=9.02672	Units=m
New	Line.line_BAN_2112_2113	Bus1=2112	Bus2=2113	phases=3	Linecode=3p_11kV_100_ACSR_Al_o	Length=19.903	Units=m
New	Line.line_BAN_2113_2114	Bus1=2113	Bus2=2114	phases=3	Linecode=3p_11kV_100_ACSR_Al_o	Length=23.3057	Units=m
New	Line.line_BAN_2114_2115	Bus1=2114	Bus2=2115	phases=3	Linecode=3p_11kV_100_ACSR_Al_o	Length=22.8262	Units=m
New	Line.line_BAN_2115_2116	Bus1=2115	Bus2=2116	phases=3	Linecode=3p_11kV_100_ACSR_Al_o	Length=19.6034	Units=m
New	Line.line_BAN_2116_2117	Bus1=2116	Bus2=2117	phases=3	Linecode=3p_11kV_100_ACSR_Al_o	Length=24.7277	Units=m
New	Line.line_BAN_2117_2118	Bus1=2117	Bus2=2118	phases=3	Linecode=3p_11kV_100_ACSR_Al_o	Length=23.2341	Units=m
New	Line.line_BAN_2118_2119	Bus1=2118	Bus2=2119	phases=3	Linecode=3p_11kV_100_ACSR_Al_o	Length=11.7596	Units=m
New	Line.line_BAN_2119_2120	Bus1=2119	Bus2=2120	phases=3	Linecode=3p_11kV_100_ACSR_Al_o	Length=16.86	Units=m
New	Line.line_BAN_2120_2121	Bus1=2120	Bus2=2121	phases=3	Linecode=3p_11kV_100_ACSR_Al_o	Length=6.14436	Units=m
New	Line.line_BAN_2121_2243	Bus1=2121	Bus2=2243	phases=3	Linecode=3p_11kV_100_ACSR_Al_o	Length=1.21666	Units=m
New	Line.line_BAN_2122_2123	Bus1=2122	Bus2=2123	phases=3	Linecode=3p_11kV_100_ACSR_Al_o	Length=21.8956	Units=m
New	Line.line_BAN_2123_2124	Bus1=2123	Bus2=2124	phases=3	Linecode=3p_11kV_100_ACSR_Al_o	Length=19.549	Units=m
New	Line.line_BAN_2124_2125	Bus1=2124	Bus2=2125	phases=3	Linecode=3p_11kV_100_ACSR_Al_o	Length=17.6488	Units=m
New	Line.line_BAN_2125_2126	Bus1=2125	Bus2=2126	phases=3	Linecode=3p_11kV_100_ACSR_Al_o	Length=20.6884	Units=m
New	Line.line_BAN_2126_2127	Bus1=2126	Bus2=2127	phases=3	Linecode=3p_11kV_100_ACSR_Al_o	Length=16.7039	Units=m
New	Line.line_BAN_2127_2128	Bus1=2127	Bus2=2128	phases=3	Linecode=3p_11kV_100_ACSR_Al_o	Length=18.2874	Units=m
New	Line.line_BAN_2128_2129	Bus1=2128	Bus2=2129	phases=3	Linecode=3p_11kV_100_ACSR_Al_o	Length=18.0944	Units=m
New	Line.line_BAN_2129_2130	Bus1=2129	Bus2=2130	phases=3	Linecode=3p_11kV_100_ACSR_Al_o	Length=18.3041	Units=m
New	Line.line_BAN_2130_2131	Bus1=2130	Bus2=2131	phases=3	Linecode=3p_11kV_100_ACSR_Al_o	Length=19.2043	Units=m
New	Line.line_BAN_2131_2132	Bus1=2131	Bus2=2132	phases=3	Linecode=3p_11kV_100_ACSR_Al_o	Length=2.99682	Units=m
New	Line.line_BAN_2132_2133	Bus1=2132	Bus2=2133	phases=3	Linecode=3p_11kV_100_ACSR_Al_o	Length=25.2054	Units=m
New	Line.line_BAN_2133_2134	Bus1=2133	Bus2=2134	phases=3	Linecode=3p_11kV_100_ACSR_Al_o	Length=24.3596	Units=m
New	Line.line_BAN_2134_2135	Bus1=2134	Bus2=2135	phases=3	Linecode=3p_11kV_100_ACSR_Al_o	Length=20.8237	Units=m
New	Line.line_BAN_2135_2136	Bus1=2135	Bus2=2136	phases=3	Linecode=3p_11kV_100_ACSR_Al_o	Length=24.3633	Units=m
New	Line.line_BAN_2136_2137	Bus1=2136	Bus2=2137	phases=3	Linecode=3p_11kV_100_ACSR_Al_o	Length=29.7337	Units=m
New	Line.line_BAN_2137_2138	Bus1=2137	Bus2=2138	phases=3	Linecode=3p_11kV_100_ACSR_Al_o	Length=23.7194	Units=m
New	Line.line_BAN_2138_2139	Bus1=2138	Bus2=2139	phases=3	Linecode=3p_11kV_100_ACSR_Al_o	Length=24.3418	Units=m
New	Line.line_BAN_2139_2140	Bus1=2139	Bus2=2140	phases=3	Linecode=3p_11kV_100_ACSR_Al_o	Length=22.6034	Units=m
New	Line.line_BAN_2140_2141	Bus1=2140	Bus2=2141	phases=3	Linecode=3p_11kV_100_ACSR_Al_o	Length=22.3596	Units=m
New	Line.line_BAN_2141_2142	Bus1=2141	Bus2=2142	phases=3	Linecode=3p_11kV_100_ACSR_Al_o	Length=21.7838	Units=m
New	Line.line_BAN_2142_2143	Bus1=2142	Bus2=2143	phases=3	Linecode=3p_11kV_100_ACSR_Al_o	Length=25.3263	Units=m
New	Line.line_BAN_2143_2144	Bus1=2143	Bus2=2144	phases=3	Linecode=3p_11kV_100_ACSR_Al_o	Length=22.0176	Units=m
New	Line.line_BAN_2144_2145	Bus1=2144	Bus2=2145	phases=3	Linecode=3p_11kV_100_ACSR_Al_o	Length=21.6314	Units=m
New	Line.line_BAN_2145_2146	Bus1=2145	Bus2=2146	phases=3	Linecode=3p_11kV_100_ACSR_Al_o	Length=19.8597	Units=m
New	Line.line_BAN_2146_2147	Bus1=2146	Bus2=2147	phases=3	Linecode=3p_11kV_100_ACSR_Al_o	Length=15.8259	Units=m

New	Line.line_BAN_2149_2150	Bus1=2149	Bus2=2150	phases=3	Linecode=3p_11kV_100_ACSR_Al_o	Length=28.3034	Units=m
New	Line.line_BAN_2150_2151	Bus1=2150	Bus2=2151	phases=3	Linecode=3p_11kV_100_ACSR_Al_o	Length=27.9168	Units=m
New	Line.line_BAN_2151_2152	Bus1=2151	Bus2=2152	phases=3	Linecode=3p_11kV_100_ACSR_Al_o	Length=21.3085	Units=m
New	Line.line_BAN_2152_2153	Bus1=2152	Bus2=2153	phases=3	Linecode=3p_11kV_100_ACSR_Al_o	Length=22.5785	Units=m
New	Line.line_BAN_2153_2154	Bus1=2153	Bus2=2154	phases=3	Linecode=3p_11kV_100_ACSR_Al_o	Length=24.3974	Units=m
New	Line.line_BAN_2154_2155	Bus1=2154	Bus2=2155	phases=3	Linecode=3p_11kV_100_ACSR_Al_o	Length=14.8789	Units=m
New	Line.line_BAN_2155_2156	Bus1=2155	Bus2=2156	phases=3	Linecode=3p_11kV_100_ACSR_Al_o	Length=8.84907	Units=m
New	Line.line_BAN_2156_2157	Bus1=2156	Bus2=2157	phases=3	Linecode=3p_11kV_100_ACSR_Al_o	Length=28.0842	Units=m
New	Line.line_BAN_2157_2158	Bus1=2157	Bus2=2158	phases=3	Linecode=3p_11kV_100_ACSR_Al_o	Length=31.0189	Units=m
New	Line.line_BAN_2158_2159	Bus1=2158	Bus2=2159	phases=3	Linecode=3p_11kV_100_ACSR_Al_o	Length=27.8029	Units=m
New	Line.line_BAN_2159_2166	Bus1=2159	Bus2=2166	phases=3	Linecode=3p_11kV_100_ACSR_Al_o	Length=16.2332	Units=m
New	Line.line_BAN_2160_2161	Bus1=2160	Bus2=2161	phases=3	Linecode=3p_11kV_100_ACSR_Al_o	Length=29.0568	Units=m
New	Line.line_BAN_2161_2162	Bus1=2161	Bus2=2162	phases=3	Linecode=3p_11kV_100_ACSR_Al_o	Length=9.1751	Units=m
New	Line.line_BAN_2162_2163	Bus1=2162	Bus2=2163	phases=3	Linecode=3p_11kV_100_ACSR_Al_o	Length=20.5735	Units=m
New	Line.line_BAN_2163_2164	Bus1=2163	Bus2=2164	phases=3	Linecode=3p_11kV_100_ACSR_Al_o	Length=22.9149	Units=m
New	Line.line_BAN_2164_2165	Bus1=2164	Bus2=2165	phases=3	Linecode=3p_11kV_100_ACSR_Al_o	Length=37.5275	Units=m
New	Line.line_BAN_2166_2160	Bus1=2166	Bus2=2160	phases=3	Linecode=3p_11kV_100_ACSR_Al_o	Length=25.5358	Units=m
New	Line.line_BAN_2166_2167	Bus1=2166	Bus2=2167	phases=3	Linecode=3p_11kV_100_ACSR_Al_o	Length=32.4825	Units=m
New	Line.line_BAN_2167_2168	Bus1=2167	Bus2=2168	phases=3	Linecode=3p_11kV_100_ACSR_Al_o	Length=28.9233	Units=m
New	Line.line_BAN_2168_2169	Bus1=2168	Bus2=2169	phases=3	Linecode=3p_11kV_100_ACSR_Al_o	Length=29.232	Units=m
New	Line.line_BAN_2169_2170	Bus1=2169	Bus2=2170	phases=3	Linecode=3p_11kV_100_ACSR_Al_o	Length=29.0842	Units=m
New	Line.line_BAN_2170_2171	Bus1=2170	Bus2=2171	phases=3	Linecode=3p_11kV_100_ACSR_Al_o	Length=33.1047	Units=m
New	Line.line_BAN_2171_2172	Bus1=2171	Bus2=2172	phases=3	Linecode=3p_11kV_100_ACSR_Al_o	Length=25.2043	Units=m
New	Line.line_BAN_2172_2173	Bus1=2172	Bus2=2173	phases=3	Linecode=3p_11kV_100_ACSR_Al_o	Length=28.0433	Units=m
New	Line.line_BAN_2173_2174	Bus1=2173	Bus2=2174	phases=3	Linecode=3p_11kV_100_ACSR_Al_o	Length=33.1997	Units=m
New	Line.line_BAN_2174_2175	Bus1=2174	Bus2=2175	phases=3	Linecode=3p_11kV_100_ACSR_Al_o	Length=19.1027	Units=m
New	Line.line_BAN_2175_2176	Bus1=2175	Bus2=2176	phases=3	Linecode=3p_11kV_100_ACSR_Al_o	Length=40.3038	Units=m
New	Line.line_BAN_2176_2177	Bus1=2176	Bus2=2177	phases=3	Linecode=3p_11kV_100_ACSR_Al_o	Length=23.5085	Units=m
New	Line.line_BAN_2177_2178	Bus1=2177	Bus2=2178	phases=3	Linecode=3p_11kV_100_ACSR_Al_o	Length=23.9631	Units=m
New	Line.line_BAN_2178_2179	Bus1=2178	Bus2=2179	phases=3	Linecode=3p_11kV_100_ACSR_Al_o	Length=22.3103	Units=m
New	Line.line_BAN_2179_2180	Bus1=2179	Bus2=2180	phases=3	Linecode=3p_11kV_100_ACSR_Al_o	Length=21.1305	Units=m
New	Line.line_BAN_2180_2181	Bus1=2180	Bus2=2181	phases=3	Linecode=3p_11kV_100_ACSR_Al_o	Length=12.7714	Units=m
New	Line.line_BAN_2181_2182	Bus1=2181	Bus2=2182	phases=3	Linecode=3p_11kV_100_ACSR_Al_o	Length=17.821	Units=m
New	Line.line_BAN_2182_2183	Bus1=2182	Bus2=2183	phases=3	Linecode=3p_11kV_100_ACSR_Al_o	Length=21.2563	Units=m
New	Line.line_BAN_2183_2184	Bus1=2183	Bus2=2184	phases=3	Linecode=3p_11kV_100_ACSR_Al_o	Length=10.3684	Units=m
New	Line.line_BAN_2185_2186	Bus1=2185	Bus2=2186	phases=3	Linecode=3p_11kV_100_ACSR_Al_o	Length=24.0467	Units=m
New	Line.line_BAN_2186_2187	Bus1=2186	Bus2=2187	phases=3	Linecode=3p_11kV_100_ACSR_Al_o	Length=25.475	Units=m
New	Line.line_BAN_2187_2188	Bus1=2187	Bus2=2188	phases=3	Linecode=3p_11kV_100_ACSR_Al_o	Length=26.2872	Units=m
New	Line.line_BAN_2188_2189	Bus1=2188	Bus2=2189	phases=3	Linecode=3p_11kV_100_ACSR_Al_o	Length=25.4749	Units=m
New	Line.line_BAN_2189_2190	Bus1=2189	Bus2=2190	phases=3	Linecode=3p_11kV_100_ACSR_Al_o	Length=11.8168	Units=m
New	Line.line_BAN_2190_2191	Bus1=2190	Bus2=2191	phases=3	Linecode=3p_11kV_100_ACSR_Al_o	Length=7.47177	Units=m
New	Line.line_BAN_2191_2192	Bus1=2191	Bus2=2192	phases=3	Linecode=3p_11kV_100_ACSR_Al_o	Length=21.8714	Units=m
New	Line.line_BAN_2192_2193	Bus1=2192	Bus2=2193	phases=3	Linecode=3p_11kV_100_ACSR_Al_o	Length=22.2338	Units=m
New	Line.line_BAN_2193_2194	Bus1=2193	Bus2=2194	phases=3	Linecode=3p_11kV_100_ACSR_Al_o	Length=20.1079	Units=m
New	Line.line_BAN_2194_2195	Bus1=2194	Bus2=2195	phases=3	Linecode=3p_11kV_100_ACSR_Al_o	Length=13.0795	Units=m
New	Line.line_BAN_2195_2055	Bus1=2195	Bus2=2055	phases=3	Linecode=3p_11kV_100_ACSR_Al_o	Length=15.9095	Units=m
New	Line.line_BAN_2196_2001	Bus1=2196	Bus2=2001	phases=3	Linecode=3p_11kV_240_XLPE_Al_u	Length=2.53566	Units=m
New	Line.line_BAN_2197_2002	Bus1=2197	Bus2=2002	phases=3	Linecode=3p_11kV_240_XLPE_Al_u	Length=12.264	Units=m
New	Line.line_BAN_2198_2199	Bus1=2198	Bus2=2199	phases=3	Linecode=3p_11kV_240_XLPE_Al_u	Length=6.07971	Units=m
New	Line.line_BAN_2199_2200	Bus1=2199	Bus2=2200	phases=3	Linecode=3p_11kV_240_XLPE_Al_u	Length=0.997059	Units=m
New	Line.line_BAN_2200_2201	Bus1=2200	Bus2=2201	phases=3	Linecode=3p_11kV_240_XLPE_Al_u	Length=2.29488	Units=m
New	Line.line_BAN_2201_2003	Bus1=2201	Bus2=2003	phases=3	Linecode=3p_11kV_240_XLPE_Al_u	Length=6.35186	Units=m
New	Line.line_BAN_2202_2203	Bus1=2202	Bus2=2203	phases=3	Linecode=3p_11kV_240_XLPE_Al_u	Length=3.31442	Units=m
New	Line.line_BAN_2203_2204	Bus1=2203	Bus2=2204	phases=3	Linecode=3p_11kV_240_XLPE_Al_u	Length=5.40784	Units=m
New	Line.line_BAN_2204_2205	Bus1=2204	Bus2=2205	phases=3	Linecode=3p_11kV_240_XLPE_Al_u	Length=0.648392	Units=m
New	Line.line_BAN_2205_2004	Bus1=2205	Bus2=2004	phases=3	Linecode=3p_11kV_240_XLPE_Al_u	Length=5.5848	Units=m
New	Line.line_BAN_2206_2207	Bus1=2206	Bus2=2207	phases=3	Linecode=3p_11kV_240_XLPE_Al_u	Length=0.052424	Units=m
New	Line.line_BAN_2207_2208	Bus1=2207	Bus2=2208	phases=3	Linecode=3p_11kV_240_XLPE_Al_u	Length=8.23914	Units=m
New	Line.line_BAN_2208_2209	Bus1=2208	Bus2=2209	phases=3	Linecode=3p_11kV_240_XLPE_Al_u	Length=1.69731	Units=m
New	Line.line_BAN_2209_2210	Bus1=2209	Bus2=2210	phases=3	Linecode=3p_11kV_240_XLPE_Al_u	Length=1.0614	Units=m
New	Line.line_BAN_2210_2211	Bus1=2210	Bus2=2211	phases=3	Linecode=3p_11kV_240_XLPE_Al_u	Length=1.07089	Units=m
New	Line.line_BAN_2211_2005	Bus1=2211	Bus2=2005	phases=3	Linecode=3p_11kV_240_XLPE_Al_u	Length=0.335277	Units=m
New	Line.line_BAN_2212_2213	Bus1=2212	Bus2=2213	phases=3	Linecode=3p_11kV_240_XLPE_Al_u	Length=0.152323	Units=m
New	Line.line_BAN_2213_2214	Bus1=2213	Bus2=2214	phases=3	Linecode=3p_11kV_240_XLPE_Al_u	Length=0.384505	Units=m
New	Line.line_BAN_2214_2215	Bus1=2214	Bus2=2215	phases=3	Linecode=3p_11kV_240_XLPE_Al_u	Length=6.53818	Units=m
New	Line.line_BAN_2215_2006	Bus1=2215	Bus2=2006	phases=3	Linecode=3p_11kV_240_XLPE_Al_u	Length=11.9055	Units=m
New	Line.line_BAN_2216_2217	Bus1=2216	Bus2=2217	phases=3	Linecode=3p_11kV_240_XLPE_Al_u	Length=5.73946	Units=m
New	Line.line_BAN_2217_2007	Bus1=2217	Bus2=2007	phases=3	Linecode=3p_11kV_240_XLPE_Al_u	Length=12.6198	Units=m
New	Line.line_BAN_2218_2219	Bus1=2218	Bus2=2219	phases=3	Linecode=3p_11kV_240_XLPE_Al_u	Length=19.1937	Units=m
New	Line.line_BAN_2219_2008	Bus1=2219	Bus2=2008	phases=3	Linecode=3p_11kV_240_XLPE_Al_u	Length=1.1548	Units=m
New	Line.line_BAN_2220_2221	Bus1=2220	Bus2=2221	phases=3	Linecode=3p_11kV_240_XLPE_Al_u	Length=3.68373	Units=m
New	Line.line_BAN_2221_2222	Bus1=2221	Bus2=2222	phases=3	Linecode=3p_11kV_240_XLPE_Al_u	Length=4.27098	Units=m
New	Line.line_BAN_2222_2223	Bus1=2222	Bus2=2223	phases=3	Linecode=3p_11kV_240_XLPE_Al_u	Length=1.38297	Units=m
New	Line.line_BAN_2223_2009	Bus1=2223	Bus2=2009	phases=3	Linecode=3p_11kV_240_XLPE_Al_u	Length=0.106568	Units=m
New	Line.line_BAN_2224_2225	Bus1=2224	Bus2=2225	phases=3	Linecode=3p_11kV_100_ACSR_Al_o	Length=1.23456	Units=m
New	Line.line_BAN_2225_2010	Bus1=2225	Bus2=2010	phases=3	Linecode=3p_11kV_100_ACSR_Al_o	Length=0.451621	Units=m
New	Line.line_BAN_2226_2012	Bus1=2226	Bus2=2012	phases=3	Linecode=3p_11kV_100_ACSR_Al_o	Length=14.9992	Units=m
New	Line.line_BAN_2227_2013	Bus1=2227	Bus2=2013	phases=3	Linecode=3p_11kV_100_ACSR_Al_o	Length=9.58662	Units=m
New	Line.line_BAN_2228_2014	Bus1=2228	Bus2=2014	phases=3	Linecode=3p_11kV_100_ACSR_Al_o	Length=23.2584	Units=m
New	Line.line_BAN_2229_2230	Bus1=2229	Bus2=2230	phases=3	Linecode=3p_11kV_100_ACSR_Al_o	Length=12.5394	Units=m
New	Line.line_BAN_2230_2015	Bus1=2230	Bus2=2015	phases=3	Linecode=3p_11kV_100_ACSR_Al_o	Length=4.33428	Units=m
New	Line.line_BAN_2231_2016	Bus1=2231	Bus2=2016	phases=3	Linecode=3p_11kV_100_ACSR_Al_o	Length=1.29792	Units=m
New	Line.line_BAN_2232_2017	Bus1=2232	Bus2=2017	phases=3	Linecode=3p_11kV_100_ACSR_Al_o	Length=0.2632	Units=m
New	Line.line_BAN_2233_2234	Bus1=2233	Bus2=2234	phases=3	Linecode=3p_11kV_100_ACSR_Al_o	Length=0.052685	Units=m
New	Line.line_BAN_2234_2235	Bus1=2234	Bus2=2235	phases=3	Linecode=3p_11kV_100_ACSR_Al_o	Length=0.257049	Units=m
New	Line.line_BAN_2235_2018	Bus1=2235	Bus2=2018	phases=3	Linecode=3p_11kV_100_ACSR_Al_o	Length=0.10254	Units=m
New	Line.line_BAN_2236_2237	Bus1=2236	Bus2=2237	phases=3	Linecode=3p_11kV_100_ACSR_Al_o	Length=7.35309	Units=m
New	Line.line_BAN_2237_2019	Bus1=2237	Bus2=2019	phases=3	Linecode=3p_11kV_100_ACSR_Al_o	Length=6.67726	Units=m
New	Line.line_BAN_2238_2239	Bus1=2238	Bus2=2239	phases=3	Linecode=3p_11kV_240_XLPE_Al_u	Length=1.63743	Units=m
New	Line.line_BAN_2239_2240	Bus1=2239	Bus2=2240	phases=3	Linecode=3p_11kV_240_XLPE_Al_u	Length=2.88712	Units=m
New	Line.line_BAN_2240_2241	Bus1=2240	Bus2=2241	phases=3	Linecode=3p_11kV_240_XLPE_Al_u	Length=6.11368	Units=m
New	Line.line_BAN_2241_2020	Bus1=2241	Bus2=2020	phases=3	Linecode=3p_11kV_240_XLPE_Al_u	Length=16.9497	Units=m
New	Line.line_BAN_2242_2099	Bus1=2242	Bus2=2099	phases=3	Linecode=3p_11kV_100_ACSR_Al_o	Length=2.42365	Units=m
New	Line.line_BAN_2243_2122	Bus1=2243	Bus2=2122	phases=3	Linecode=3p_11kV_100_ACSR_Al_o	Length=17.1217	Units=m
