data_files/feeders/Baneshwor_SS_Feeders/data_files/Lines/Lines_3.txt
New	Line.line_DHO_103_3200	Bus1=103	Bus2=3200	phases=3	Linecode=3p_11kV_240_XLPE_Al_u	Length=1.58372	Units=m
New	Line.line_DHO_3002_3003	Bus1=3002	Bus2=3003	phases=3	Linecode=3p_11kV_240_XLPE_Al_u	Length=19.3821	Units=m
New	Line.line_DHO_3003_3004	Bus1=3003	Bus2=3004	phases=3	Linecode=3p_11kV_240_XLPE_Al_u	Length=0.621816	Units=m
New	Line.line_DHO_3004_3005	Bus1=3004	Bus2=3005	phases=3	Linecode=3p_11kV_240_XLPE_Al_u	Length=14.7995	Units=m
New	Line.line_DHO_3005_3006	Bus1=3005	Bus2=3006	phases=3	Linecode=3p_11kV_240_XLPE_Al_u	Length=11.8891	Units=m
New	Line.line_DHO_3006_3007	Bus1=3006	Bus2=3007	phases=3	Linecode=3p_11kV_240_XLPE_Al_u	Length=18.9635	Units=m
New	Line.line_DHO_3007_3008	Bus1=3007	Bus2=3008	phases=3	Linecode=3p_11kV_240_XLPE_Al_u	Length=7.49001	Units=m
New	Line.line_DHO_3008_3009	Bus1=3008	Bus2=3009	phases=3	Linecode=3p_11kV_240_XLPE_Al_u	Length=22.3246	Units=m
New	Line.line_DHO_3009_3203	Bus1=3009	Bus2=3203	phases=3	Linecode=3p_11kV_240_XLPE_Al_u	Length=27.5832	Units=m
New	Line.line_DHO_3010_3208	Bus1=3010	Bus2=3208	phases=3	Linecode=3p_11kV_240_XLPE_Al_u	Length=0.887803	Units=m
New	Line.line_DHO_3011_3213	Bus1=3011	Bus2=3213	phases=3	Linecode=3p_11kV_240_XLPE_Al_u	Length=9.75227	Units=m
New	Line.line_DHO_3012_3216	Bus1=3012	Bus2=3216	phases=3	Linecode=3p_11kV_240_XLPE_Al_u	Length=12.0888	Units=m
New	Line.line_DHO_3013_3220	Bus1=3013	Bus2=3220	phases=3	Linecode=3p_11kV_240_XLPE_Al_u	Length=0.275921	Units=m
New	Line.line_DHO_3014_3015	Bus1=3014	Bus2=3015	phases=3	Linecode=3p_11kV_240_XLPE_Al_u	Length=1.80756	Units=m
New	Line.line_DHO_3015_3228	Bus1=3015	Bus2=3228	phases=3	Linecode=3p_11kV_240_XLPE_Al_u	Length=3.71945	Units=m
New	Line.line_DHO_3016_3231	Bus1=3016	Bus2=3231	phases=3	Linecode=3p_11kV_240_XLPE_Al_u	Length=11.3683	Units=m
New	Line.line_DHO_3017_3235	Bus1=3017	Bus2=3235	phases=3	Linecode=3p_11kV_240_XLPE_Al_u	Length=2.00968	Units=m
New	Line.line_DHO_3018_3236	Bus1=3018	Bus2=3236	phases=3	Linecode=3p_11kV_240_XLPE_Al_u	Length=0.470738	Units=m
New	Line.line_DHO_3019_3020	Bus1=3019	Bus2=3020	phases=3	Linecode=3p_11kV_240_XLPE_Al_u	Length=96.5657	Units=m
New	Line.line_DHO_3020_3021	Bus1=3020	Bus2=3021	phases=3	Linecode=3p_11kV_240_XLPE_Al_u	Length=218.817	Units=m
New	Line.line_DHO_3021_3022	Bus1=3021	Bus2=3022	phases=3	Linecode=3p_11kV_240_XLPE_Al_u	Length=98.037	Units=m
New	Line.line_DHO_3022_3023	Bus1=3022	Bus2=3023	phases=3	Linecode=3p_11kV_240_XLPE_Al_u	Length=104.558	Units=m
New	Line.line_DHO_3023_3024	Bus1=3023	Bus2=3024	phases=3	Linecode=3p_11kV_240_XLPE_Al_u	Length=46.9345	Units=m
New	Line.line_DHO_3024_3025	Bus1=3024	Bus2=3025	phases=3	Linecode=3p_11kV_240_XLPE_Al_u	Length=12.5733	Units=m
New	Line.line_DHO_3025_3026	Bus1=3025	Bus2=3026	phases=3	Linecode=3p_11kV_100_ACSR_Al_o	Length=111.675	Units=m
New	Line.line_DHO_3026_3027	Bus1=3026	Bus2=3027	phases=3	Linecode=3p_11kV_100_ACSR_Al_o	Length=10.8906	Units=m
New	Line.line_DHO_3027_3028	Bus1=3027	Bus2=3028	phases=3	Linecode=3p_11kV_100_ACSR_Al_o	Length=68.1854	Units=m
New	Line.line_DHO_3028_3029	Bus1=3028	Bus2=3029	phases=3	Linecode=3p_11kV_100_ACSR_Al_o	Length=65.5811	Units=m
New	Line.line_DHO_3029_3030	Bus1=3029	Bus2=3030	phases=3	Linecode=3p_11kV_240_XLPE_Al_u	Length=59.0343	Units=m
New	Line.line_DHO_3030_3031	Bus1=3030	Bus2=3031	phases=3	Linecode=3p_11kV_240_XLPE_Al_u	Length=57.0838	Units=m
New	Line.line_DHO_3031_3032	Bus1=3031	Bus2=3032	phases=3	Linecode=3p_11kV_100_ACSR_Al_o	Length=114.134	Units=m

New	Line.line_DHO_3033_3034	Bus1=3033	Bus2=3034	phases=3	Linecode=3p_11kV_100_ACSR_Al_o	Length=49.288	Units=m
New	Line.line_DHO_3034_3035	Bus1=3034	Bus2=3035	phases=3	Linecode=3p_11kV_100_ACSR_Al_o	Length=45.1641	Units=m
New	Line.line_DHO_3035_3036	Bus1=3035	Bus2=3036	phases=3	Linecode=3p_11kV_100_ACSR_Al_o	Length=24.5837	Units=m
New	Line.line_DHO_3036_3037	Bus1=3036	Bus2=3037	phases=3	Linecode=3p_11kV_100_ACSR_Al_o	Length=28.7467	Units=m
New	Line.line_DHO_3037_3038	Bus1=3037	Bus2=3038	phases=3	Linecode=3p_11kV_100_ACSR_Al_o	Length=73.5442	Units=m
New	Line.line_DHO_3038_3039	Bus1=3038	Bus2=3039	phases=3	Linecode=3p_11kV_100_ACSR_Al_o	Length=46.0877	Units=m
New	Line.line_DHO_3039_3040	Bus1=3039	Bus2=3040	phases=3	Linecode=3p_11kV_100_ACSR_Al_o	Length=11.202	Units=m
New	Line.line_DHO_3040_3088	Bus1=3040	Bus2=3088	phases=3	Linecode=3p_11kV_100_ACSR_Al_o	Length=32.0069	Units=m
New	Line.line_DHO_3041_3042	Bus1=3041	Bus2=3042	phases=3	Linecode=3p_11kV_200_XLPE_Al_o	Length=48.3962	Units=m
New	Line.line_DHO_3042_3043	Bus1=3042	Bus2=3043	phases=3	Linecode=3p_11kV_200_XLPE_Al_o	Length=38.3467	Units=m
New	Line.line_DHO_3043_3044	Bus1=3043	Bus2=3044	phases=3	Linecode=3p_11kV_200_XLPE_Al_o	Length=52.0499	Units=m
New	Line.line_DHO_3044_3045	Bus1=3044	Bus2=3045	phases=3	Linecode=3p_11kV_200_XLPE_Al_o	Length=81.2108	Units=m
New	Line.line_DHO_3045_3238	Bus1=3045	Bus2=3238	phases=3	Linecode=3p_11kV_200_XLPE_Al_o	Length=27.1651	Units=m
New	Line.line_DHO_3046_3047	Bus1=3046	Bus2=3047	phases=3	Linecode=3p_11kV_200_XLPE_Al_o	Length=3.00323	Units=m
New	Line.line_DHO_3047_3048	Bus1=3047	Bus2=3048	phases=3	Linecode=3p_11kV_200_XLPE_Al_o	Length=28.1773	Units=m
New	Line.line_DHO_3048_3049	Bus1=3048	Bus2=3049	phases=3	Linecode=3p_11kV_200_XLPE_Al_o	Length=27.7425	Units=m
New	Line.line_DHO_3049_3050	Bus1=3049	Bus2=3050	phases=3	Linecode=3p_11kV_200_XLPE_Al_o	Length=25.7044	Units=m
New	Line.line_DHO_3050_3051	Bus1=3050	Bus2=3051	phases=3	Linecode=3p_11kV_200_XLPE_Al_o	Length=24.0152	Units=m
New	Line.line_DHO_3051_3001	Bus1=3051	Bus2=3001	phases=3	Linecode=3p_11kV_100_ACSR_Al_o	Length=33.0424	Units=m
New	Line.line_DHO_3051_3237	Bus1=3051	Bus2=3237	phases=3	Linecode=3p_11kV_200_XLPE_Al_o	Length=13.6566	Units=m
New	Line.line_DHO_3052_3053	Bus1=3052	Bus2=3053	phases=3	Linecode=3p_11kV_200_XLPE_Al_o	Length=1.71882	Units=m
New	Line.line_DHO_3053_3054	Bus1=3053	Bus2=3054	phases=3	Linecode=3p_11kV_200_XLPE_Al_o	Length=14.1226	Units=m
New	Line.line_DHO_3054_3055	Bus1=3054	Bus2=3055	phases=3	Linecode=3p_11kV_200_XLPE_Al_o	Length=23.6065	Units=m
New	Line.line_DHO_3055_3056	Bus1=3055	Bus2=3056	phases=3	Linecode=3p_11kV_200_XLPE_Al_o	Length=14.0152	Units=m
New	Line.line_DHO_3056_3057	Bus1=3056	Bus2=3057	phases=3	Linecode=3p_11kV_200_XLPE_Al_o	Length=16.3351	Units=m
New	Line.line_DHO_3057_3058	Bus1=3057	Bus2=3058	phases=3	Linecode=3p_11kV_200_XLPE_Al_o	Length=10.0077	Units=m
New	Line.line_DHO_3058_3059	Bus1=3058	Bus2=3059	phases=3	Linecode=3p_11kV_200_XLPE_Al_o	Length=10.7243	Units=m
New	Line.line_DHO_3059_3060	Bus1=3059	Bus2=3060	phases=3	Linecode=3p_11kV_200_XLPE_Al_o	Length=8.72762	Units=m
New	Line.line_DHO_3060_3061	Bus1=3060	Bus2=3061	phases=3	Linecode=3p_11kV_100_ACSR_Al_o	Length=16.5759	Units=m
New	Line.line_DHO_3061_3062	Bus1=3061	Bus2=3062	phases=3	Linecode=3p_11kV_100_ACSR_Al_o	Length=16.2671	Units=m
New	Line.line_DHO_3062_3063	Bus1=3062	Bus2=3063	phases=3	Linecode=3p_11kV_100_ACSR_Al_o	Length=11.2965	Units=m
New	Line.line_DHO_3063_3064	Bus1=3063	Bus2=3064	phases=3	Linecode=3p_11kV_100_ACSR_Al_o	Length=13.5558	Units=m
New	Line.line_DHO_3064_3065	Bus1=3064	Bus2=3065	phases=3	Linecode=3p_11kV_100_ACSR_Al_o	Length=6.28582	Units=m
New	Line.line_DHO_3065_3066	Bus1=3065	Bus2=3066	phases=3	Linecode=3p_11kV_100_ACSR_Al_o	Length=20.354	Units=m
New	Line.line_DHO_3066_3067	Bus1=3066	Bus2=3067	phases=3	Linecode=3p_11kV_100_ACSR_Al_o	Length=16.4248	Units=m
New	Line.line_DHO_3067_3068	Bus1=3067	Bus2=3068	phases=3	Linecode=3p_11kV_100_ACSR_Al_o	Length=33.0981	Units=m
New	Line.line_DHO_3068_3069	Bus1=3068	Bus2=3069	phases=3	Linecode=3p_11kV_100_ACSR_Al_o	Length=32.8492	Units=m
New	Line.line_DHO_3069_3070	Bus1=3069	Bus2=3070	phases=3	Linecode=3p_11kV_100_ACSR_Al_o	Length=30.15	Units=m
New	Line.line_DHO_3070_3071	Bus1=3070	Bus2=3071	phases=3	Linecode=3p_11kV_100_ACSR_Al_o	Length=16.0404	Units=m
New	Line.line_DHO_3071_3239	Bus1=3071	Bus2=3239	phases=3	Linecode=3p_11kV_100_ACSR_Al_o	Length=13.2291	Units=m
New	Line.line_DHO_3072_3073	Bus1=3072	Bus2=3073	phases=3	Linecode=3p_11kV_100_ACSR_Al_o	Length=3.26659	Units=m
New	Line.line_DHO_3073_3074	Bus1=3073	Bus2=3074	phases=3	Linecode=3p_11kV_100_ACSR_Al_o	Length=22.9458	Units=m
New	Line.line_DHO_3074_3075	Bus1=3074	Bus2=3075	phases=3	Linecode=3p_11kV_100_ACSR_Al_o	Length=70.0512	Units=m
New	Line.line_DHO_3075_3076	Bus1=3075	Bus2=3076	phases=3	Linecode=3p_11kV_100_ACSR_Al_o	Length=29.3545	Units=m
New	Line.line_DHO_3076_3077	Bus1=3076	Bus2=3077	phases=3	Linecode=3p_11kV_100_ACSR_Al_o	Length=16.4544	Units=m
New	Line.line_DHO_3077_3078	Bus1=3077	Bus2=3078	phases=3	Linecode=3p_11kV_100_ACSR_Al_o	Length=18.3272	Units=m
New	Line.line_DHO_3078_3079	Bus1=3078	Bus2=3079	phases=3	Linecode=3p_11kV_100_ACSR_Al_o	Length=21.2403	Units=m
New	Line.line_DHO_3079_3080	Bus1=3079	Bus2=3080	phases=3	Linecode=3p_11kV_100_ACSR_Al_o	Length=11.0097	Units=m
New	Line.line_DHO_3080_3081	Bus1=3080	Bus2=3081	phases=3	Linecode=3p_11kV_100_ACSR_Al_o	Length=11.7832	Units=m
New	Line.line_DHO_3081_3082	Bus1=3081	Bus2=3082	phases=3	Linecode=3p_11kV_100_ACSR_Al_o	Length=14.7138	Units=m
New	Line.line_DHO_3082_3083	Bus1=3082	Bus2=3083	phases=3	Linecode=3p_11kV_100_ACSR_Al_o	Length=8.44452	Units=m
New	Line.line_DHO_3083_3084	Bus1=3083	Bus2=3084	phases=3	Linecode=3p_11kV_100_ACSR_Al_o	Length=22.4462	Units=m
New	Line.line_DHO_3084_3085	Bus1=3084	Bus2=3085	phases=3	Linecode=3p_11kV_100_ACSR_Al_o	Length=18.5146	Units=m
New	Line.line_DHO_3085_3086	Bus1=3085	Bus2=3086	phases=3	Linecode=3p_11kV_100_ACSR_Al_o	Length=25.6884	Units=m
New	Line.line_DHO_3086_3087	Bus1=3086	Bus2=3087	phases=3	Linecode=3p_11kV_100_ACSR_Al_o	Length=3.73922	Units=m
New	Line.line_DHO_3087_3134	Bus1=3087	Bus2=3134	phases=3	Linecode=3p_11kV_100_ACSR_Al_o	Length=26.1405	Units=m



New	Line.line_DHO_3088_3089	Bus1=3088	Bus2=3089	phases=3	Linecode=3p_11kV_100_ACSR_Al_o	Length=39.5905	Units=m
New	Line.line_DHO_3089_3090	Bus1=3089	Bus2=3090	phases=3	Linecode=3p_11kV_100_ACSR_Al_o	Length=22.7669	Units=m
New	Line.line_DHO_3090_3091	Bus1=3090	Bus2=3091	phases=3	Linecode=3p_11kV_100_ACSR_Al_o	Length=42.6661	Units=m
New	Line.line_DHO_3091_3092	Bus1=3091	Bus2=3092	phases=3	Linecode=3p_11kV_100_ACSR_Al_o	Length=55.7088	Units=m
New	Line.line_DHO_3092_3093	Bus1=3092	Bus2=3093	phases=3	Linecode=3p_11kV_100_ACSR_Al_o	Length=35.3685	Units=m
New	Line.line_DHO_3093_3094	Bus1=3093	Bus2=3094	phases=3	Linecode=3p_11kV_100_ACSR_Al_o	Length=17.1117	Units=m
New	Line.line_DHO_3094_3095	Bus1=3094	Bus2=3095	phases=3	Linecode=3p_11kV_100_ACSR_Al_o	Length=97.1935	Units=m
New	Line.line_DHO_3096_3097	Bus1=3096	Bus2=3097	phases=3	Linecode=3p_11kV_100_ACSR_Al_o	Length=57.3674	Units=m
New	Line.line_DHO_3097_3098	Bus1=3097	Bus2=3098	phases=3	Linecode=3p_11kV_100_ACSR_Al_o	Length=41.9141	Units=m
New	Line.line_DHO_3098_3099	Bus1=3098	Bus2=3099	phases=3	Linecode=3p_11kV_100_ACSR_Al_o	Length=37.7161	Units=m
New	Line.line_DHO_3099_3100	Bus1=3099	Bus2=3100	phases=3	Linecode=3p_11kV_100_ACSR_Al_o	Length=22.1014	Units=m
New	Line.line_DHO_3100_3108	Bus1=3100	Bus2=3108	phases=3	Linecode=3p_11kV_100_ACSR_Al_o	Length=36.649	Units=m
New	Line.line_DHO_3101_3102	Bus1=3101	Bus2=3102	phases=3	Linecode=3p_11kV_100_ACSR_Al_o	Length=10.393	Units=m
New	Line.line_DHO_3102_3103	Bus1=3102	Bus2=3103	phases=3	Linecode=3p_11kV_100_ACSR_Al_o	Length=55.8474	Units=m
New	Line.line_DHO_3103_3104	Bus1=3103	Bus2=3104	phases=3	Linecode=3p_11kV_100_ACSR_Al_o	Length=38.5422	Units=m
New	Line.line_DHO_3104_3105	Bus1=3104	Bus2=3105	phases=3	Linecode=3p_11kV_100_ACSR_Al_o	Length=34.4813	Units=m
New	Line.line_DHO_3105_3106	Bus1=3105	Bus2=3106	phases=3	Linecode=3p_11kV_100_ACSR_Al_o	Length=54.1587	Units=m
New	Line.line_DHO_3106_3107	Bus1=3106	Bus2=3107	phases=3	Linecode=3p_11kV_100_ACSR_Al_o	Length=42.8246	Units=m
New	Line.line_DHO_3108_3101	Bus1=3108	Bus2=3101	phases=3	Linecode=3p_11kV_100_ACSR_Al_o	Length=10.8448	Units=m
New	Line.line_DHO_3108_3109	Bus1=3108	Bus2=3109	phases=3	Linecode=3p_11kV_100_ACSR_Al_o	Length=29.53	Units=m
New	Line.line_DHO_3109_3110	Bus1=3109	Bus2=3110	phases=3	Linecode=3p_11kV_100_ACSR_Al_o	Length=20.7586	Units=m
New	Line.line_DHO_3110_3111	Bus1=3110	Bus2=3111	phases=3	Linecode=3p_11kV_100_ACSR_Al_o	Length=14.6481	Units=m
New	Line.line_DHO_3111_3112	Bus1=3111	Bus2=3112	phases=3	Linecode=3p_11kV_100_ACSR_Al_o	Length=26.3012	Units=m
New	Line.line_DHO_3112_3113	Bus1=3112	Bus2=3113	phases=3	Linecode=3p_11kV_100_ACSR_Al_o	Length=31.0951	Units=m
New	Line.line_DHO_3113_3114	Bus1=3113	Bus2=3114	phases=3	Linecode=3p_11kV_100_ACSR_Al_o	Length=22.2629	Units=m
New	Line.line_DHO_3114_3115	Bus1=3114	Bus2=3115	phases=3	Linecode=3p_11kV_100_ACSR_Al_o	Length=18.2206	Units=m
New	Line.line_DHO_3115_3116	Bus1=3115	Bus2=3116	phases=3	Linecode=3p_11kV_100_ACSR_Al_o	Length=16.2248	Units=m
New	Line.line_DHO_3116_3117	Bus1=3116	Bus2=3117	phases=3	Linecode=3p_11kV_100_ACSR_Al_o	Length=18.9024	Units=m
New	Line.line_DHO_3117_3118	Bus1=3117	Bus2=3118	phases=3	Linecode=3p_11kV_100_ACSR_Al_o	Length=16.5759	Units=m
New	Line.line_DHO_3119_3120	Bus1=3119	Bus2=3120	phases=3	Linecode=3p_11kV_100_ACSR_Al_o	Length=37.6362	Units=m
New	Line.line_DHO_3121_3120	Bus1=3121	Bus2=3120	phases=3	Linecode=3p_11kV_100_ACSR_Al_o	Length=27.5443	Units=m
New	Line.line_DHO_3122_3121	Bus1=3122	Bus2=3121	phases=3	Linecode=3p_11kV_100_ACSR_Al_o	Length=31.976	Units=m
New	Line.line_DHO_3123_3122	Bus1=3123	Bus2=3122	phases=3	Linecode=3p_11kV_100_ACSR_Al_o	Length=69.1983	Units=m
New	Line.line_DHO_3124_3123	Bus1=3124	Bus2=3123	phases=3	Linecode=3p_11kV_100_ACSR_Al_o	Length=10.0498	Units=m
New	Line.line_DHO_3125_3124	Bus1=3125	Bus2=3124	phases=3	Linecode=3p_11kV_100_ACSR_Al_o	Length=39.7592	Units=m
New	Line.line_DHO_3126_3125	Bus1=3126	Bus2=3125	phases=3	Linecode=3p_11kV_100_ACSR_Al_o	Length=42.2089	Units=m
New	Line.line_DHO_3127_3126	Bus1=3127	Bus2=3126	phases=3	Linecode=3p_11kV_100_ACSR_Al_o	Length=8.93973	Units=m
New	Line.line_DHO_3128_3127	Bus1=3128	Bus2=3127	phases=3	Linecode=3p_11kV_100_ACSR_Al_o	Length=17.2828	Units=m
New	Line.line_DHO_3129_3128	Bus1=3129	Bus2=3128	phases=3	Linecode=3p_11kV_100_ACSR_Al_o	Length=29.1685	Units=m
New	Line.line_DHO_3130_3129	Bus1=3130	Bus2=3129	phases=3	Linecode=3p_11kV_100_ACSR_Al_o	Length=28.442	Units=m
New	Line.line_DHO_3131_3130	Bus1=3131	Bus2=3130	phases=3	Linecode=3p_11kV_100_ACSR_Al_o	Length=18.2904	Units=m
New	Line.line_DHO_3132_3131	Bus1=3132	Bus2=3131	phases=3	Linecode=3p_11kV_100_ACSR_Al_o	Length=32.6796	Units=m
New	Line.line_DHO_3133_3132	Bus1=3133	Bus2=3132	phases=3	Linecode=3p_11kV_100_ACSR_Al_o	Length=16.5131	Units=m
New	Line.line_DHO_3134_3135	Bus1=3134	Bus2=3135	phases=3	Linecode=3p_11kV_100_ACSR_Al_o	Length=15.6185	Units=m
New	Line.line_DHO_3135_3136	Bus1=3135	Bus2=3136	phases=3	Linecode=3p_11kV_100_ACSR_Al_o	Length=6.47554	Units=m
New	Line.line_DHO_3136_3137	Bus1=3136	Bus2=3137	phases=3	Linecode=3p_11kV_100_ACSR_Al_o	Length=10.4814	Units=m
New	Line.line_DHO_3138_3139	Bus1=3138	Bus2=3139	phases=3	Linecode=3p_11kV_100_ACSR_Al_o	Length=16.0698	Units=m
New	Line.line_DHO_3139_3140	Bus1=3139	Bus2=3140	phases=3	Linecode=3p_11kV_100_ACSR_Al_o	Length=1.91902	Units=m
New	Line.line_DHO_3140_3141	Bus1=3140	Bus2=3141	phases=3	Linecode=3p_11kV_100_ACSR_Al_o	Length=19.3853	Units=m
New	Line.line_DHO_3141_3142	Bus1=3141	Bus2=3142	phases=3	Linecode=3p_11kV_100_ACSR_Al_o	Length=10.3263	Units=m
New	Line.line_DHO_3142_3143	Bus1=3142	Bus2=3143	phases=3	Linecode=3p_11kV_100_ACSR_Al_o	Length=11.3418	Units=m
New	Line.line_DHO_3143_3144	Bus1=3143	Bus2=3144	phases=3	Linecode=3p_11kV_100_ACSR_Al_o	Length=9.49958	Units=m
New	Line.line_DHO_3144_3145	Bus1=3144	Bus2=3145	phases=3	Linecode=3p_11kV_100_ACSR_Al_o	Length=8.18381	Units=m
New	Line.line_DHO_3145_3146	Bus1=3145	Bus2=3146	phases=3	Linecode=3p_11kV_100_ACSR_Al_o	Length=4.71943	Units=m
New	Line.line_DHO_3146_3147	Bus1=3146	Bus2=3147	phases=3	Linecode=3p_11kV_100_ACSR_Al_o	Length=15.0615	Units=m
New	Line.line_DHO_3147_3148	Bus1=3147	Bus2=3148	phases=3	Linecode=3p_11kV_100_ACSR_Al_o	Length=13.3359	Units=m
New	Line.line_DHO_3148_3149	Bus1=3148	Bus2=3149	phases=3	Linecode=3p_11kV_100_ACSR_Al_o	Length=6.30202	Units=m
New	Line.line_DHO_3149_3150	Bus1=3149	Bus2=3150	phases=3	Linecode=3p_11kV_100_ACSR_Al_o	Length=52.4519	Units=m
New	Line.line_DHO_3150_3151	Bus1=3150	Bus2=3151	phases=3	Linecode=3p_11kV_100_ACSR_Al_o	Length=26.0181	Units=m
New	Line.line_DHO_3151_3152	Bus1=3151	Bus2=3152	phases=3	Linecode=3p_11kV_100_ACSR_Al_o	Length=14.6462	Units=m
New	Line.line_DHO_3152_3153	Bus1=3152	Bus2=3153	phases=3	Linecode=3p_11kV_100_ACSR_Al_o	Length=5.97377	Units=m
New	Line.line_DHO_3153_3154	Bus1=3153	Bus2=3154	phases=3	Linecode=3p_11kV_100_ACSR_Al_o	Length=48.8092	Units=m
New	Line.line_DHO_3154_3155	Bus1=3154	Bus2=3155	phases=3	Linecode=3p_11kV_100_ACSR_Al_o	Length=16.2098	Units=m
New	Line.line_DHO_3155_3156	Bus1=3155	Bus2=3156	phases=3	Linecode=3p_11kV_100_ACSR_Al_o	Length=12.6655	Units=m
New	Line.line_DHO_3156_3157	Bus1=3156	Bus2=3157	phases=3	Linecode=3p_11kV_100_ACSR_Al_o	Length=8.53809	Units=m
New	Line.line_DHO_3157_3158	Bus1=3157	Bus2=3158	phases=3	Linecode=3p_11kV_100_ACSR_Al_o	Length=14.3748	Units=m
New	Line.line_DHO_3158_3159	Bus1=3158	Bus2=3159	phases=3	Linecode=3p_11kV_100_ACSR_Al_o	Length=15.0636	Units=m
New	Line.line_DHO_3159_3160	Bus1=3159	Bus2=3160	phases=3	Linecode=3p_11kV_100_ACSR_Al_o	Length=9.48866	Units=m
New	Line.line_DHO_3160_3161	Bus1=3160	Bus2=3161	phases=3	Linecode=3p_11kV_100_ACSR_Al_o	Length=12.7048	Units=m
New	Line.line_DHO_3161_3162	Bus1=3161	Bus2=3162	phases=3	Linecode=3p_11kV_100_ACSR_Al_o	Length=7.28634	Units=m
New	Line.line_DHO_3162_3163	Bus1=3162	Bus2=3163	phases=3	Linecode=3p_11kV_100_ACSR_Al_o	Length=14.6997	Units=m
New	Line.line_DHO_3163_3164	Bus1=3163	Bus2=3164	phases=3	Linecode=3p_11kV_100_ACSR_Al_o	Length=47.6563	Units=m
New	Line.line_DHO_3164_3165	Bus1=3164	Bus2=3165	phases=3	Linecode=3p_11kV_100_ACSR_Al_o	Length=18.8264	Units=m
New	Line.line_DHO_3165_3166	Bus1=3165	Bus2=3166	phases=3	Linecode=3p_11kV_100_ACSR_Al_o	Length=81.0586	Units=m
New	Line.line_DHO_3166_3167	Bus1=3166	Bus2=3167	phases=3	Linecode=3p_11kV_100_ACSR_Al_o	Length=61.4722	Units=m
New	Line.line_DHO_3167_3168	Bus1=3167	Bus2=3168	phases=3	Linecode=3p_11kV_100_ACSR_Al_o	Length=34.8083	Units=m
New	Line.line_DHO_3168_3169	Bus1=3168	Bus2=3169	phases=3	Linecode=3p_11kV_100_ACSR_Al_o	Length=19.4767	Units=m
New	Line.line_DHO_3169_3170	Bus1=3169	Bus2=3170	phases=3	Linecode=3p_11kV_100_ACSR_Al_o	Length=22.1396	Units=m
New	Line.line_DHO_3170_3171	Bus1=3170	Bus2=3171	phases=3	Linecode=3p_11kV_100_ACSR_Al_o	Length=13.1361	Units=m
New	Line.line_DHO_3171_3172	Bus1=3171	Bus2=3172	phases=3	Linecode=3p_11kV_100_ACSR_Al_o	Length=2.26677	Units=m
New	Line.line_DHO_3172_3242	Bus1=3172	Bus2=3242	phases=3	Linecode=3p_11kV_240_XLPE_Al_o	Length=0.716457	Units=m
New	Line.line_DHO_3173_3174	Bus1=3173	Bus2=3174	phases=3	Linecode=3p_11kV_100_ACSR_Al_o	Length=45.3761	Units=m
New	Line.line_DHO_3174_3175	Bus1=3174	Bus2=3175	phases=3	Linecode=3p_11kV_100_ACSR_Al_o	Length=64.1717	Units=m
New	Line.line_DHO_3175_3192	Bus1=3175	Bus2=3192	phases=3	Linecode=3p_11kV_100_ACSR_Al_o	Length=65.9318	Units=m
New	Line.line_DHO_3176_3177	Bus1=3176	Bus2=3177	phases=3	Linecode=3p_11kV_100_ACSR_Al_o	Length=10.2197	Units=m
New	Line.line_DHO_3178_3173	Bus1=3178	Bus2=3173	phases=3	Linecode=3p_11kV_100_ACSR_Al_o	Length=48.096	Units=m
New	Line.line_DHO_3178_3179	Bus1=3178	Bus2=3179	phases=3	Linecode=3p_11kV_100_ACSR_Al_o	Length=18.4081	Units=m
New	Line.line_DHO_3179_3180	Bus1=3179	Bus2=3180	phases=3	Linecode=3p_11kV_100_ACSR_Al_o	Length=23.7317	Units=m
New	Line.line_DHO_3180_3183	Bus1=3180	Bus2=3183	phases=3	Linecode=3p_11kV_100_ACSR_Al_o	Length=20.4133	Units=m
New	Line.line_DHO_3181_3182	Bus1=3181	Bus2=3182	phases=3	Linecode=3p_11kV_100_ACSR_Al_o	Length=45.8818	Units=m
New	Line.line_DHO_3183_3181	Bus1=3183	Bus2=3181	phases=3	Linecode=3p_11kV_100_ACSR_Al_o	Length=31.5832	Units=m
New	Line.line_DHO_3183_3184	Bus1=3183	Bus2=3184	phases=3	Linecode=3p_11kV_100_ACSR_Al_o	Length=24.0543	Units=m
New	Line.line_DHO_3184_3185	Bus1=3184	Bus2=3185	phases=3	Linecode=3p_11kV_100_ACSR_Al_o	Length=21.1545	Units=m
New	Line.line_DHO_3185_3186	Bus1=3185	Bus2=3186	phases=3	Linecode=3p_11kV_100_ACSR_Al_o	Length=9.24034	Units=m
New	Line.line_DHO_3186_3187	Bus1=3186	Bus2=3187	phases=3	Linecode=3p_11kV_100_ACSR_Al_o	Length=42.5323	Units=m
New	Line.line_DHO_3187_3188	Bus1=3187	Bus2=3188	phases=3	Linecode=3p_11kV_100_ACSR_Al_o	Length=28.9	Units=m
New	Line.line_DHO_3188_3189	Bus1=3188	Bus2=3189	phases=3	Linecode=3p_11kV_100_ACSR_Al_o	Length=33.3594	Units=m
New	Line.line_DHO_3189_3190	Bus1=3189	Bus2=3190	phases=3	Linecode=3p_11kV_240_XLPE_Al_o	Length=47.0381	Units=m
New	Line.line_DHO_3190_3191	Bus1=3190	Bus2=3191	phases=3	Linecode=3p_11kV_240_XLPE_Al_o	Length=27.7067	Units=m
New	Line.line_DHO_3192_3193	Bus1=3192	Bus2=3193	phases=3	Linecode=3p_11kV_100_ACSR_Al_o	Length=9.49538	Units=m
New	Line.line_DHO_3192_3241	Bus1=3192	Bus2=3241	phases=3	Linecode=3p_11kV_100_ACSR_Al_o	Length=1.29678	Units=m
New	Line.line_DHO_3193_3194	Bus1=3193	Bus2=3194	phases=3	Linecode=3p_11kV_100_ACSR_Al_o	Length=11.38	Units=m
New	Line.line_DHO_3194_3195	Bus1=3194	Bus2=3195	phases=3	Linecode=3p_11kV_100_ACSR_Al_o	Length=34.3443	Units=m
New	Line.line_DHO_3195_3196	Bus1=3195	Bus2=3196	phases=3	Linecode=3p_11kV_100_ACSR_Al_o	Length=10.169	Units=m
New	Line.line_DHO_3196_3197	Bus1=3196	Bus2=3197	phases=3	Linecode=3p_11kV_100_ACSR_Al_o	Length=17.8863	Units=m
New	Line.line_DHO_3197_3198	Bus1=3197	Bus2=3198	phases=3	Linecode=3p_11kV_100_ACSR_Al_o	Length=29.475	Units=m
New	Line.line_DHO_3198_3199	Bus1=3198	Bus2=3199	phases=3	Linecode=3p_11kV_100_ACSR_Al_o	Length=12.6838	Units=m
New	Line.line_DHO_3200_3201	Bus1=3200	Bus2=3201	phases=3	Linecode=3p_11kV_240_XLPE_Al_u	Length=7.72388	Units=m
New	Line.line_DHO_3201_3202	Bus1=3201	Bus2=3202	phases=3	Linecode=3p_11kV_240_XLPE_Al_u	Length=10.6318	Units=m
New	Line.line_DHO_3202_3002	Bus1=3202	Bus2=3002	phases=3	Linecode=3p_11kV_240_XLPE_Al_u	Length=14.4792	Units=m
New	Line.line_DHO_3203_3204	Bus1=3203	Bus2=3204	phases=3	Linecode=3p_11kV_240_XLPE_Al_u	Length=7.922287	Units=m
New	Line.line_DHO_3204_3205	Bus1=3204	Bus2=3205	phases=3	Linecode=3p_11kV_240_XLPE_Al_u	Length=0.53599	Units=m
New	Line.line_DHO_3205_3206	Bus1=3205	Bus2=3206	phases=3	Linecode=3p_11kV_240_XLPE_Al_u	Length=0.692038	Units=m
New	Line.line_DHO_3206_3207	Bus1=3206	Bus2=3207	phases=3	Linecode=3p_11kV_240_XLPE_Al_u	Length=1.66144	Units=m
New	Line.line_DHO_3207_3010	Bus1=3207	Bus2=3010	phases=3	Linecode=3p_11kV_240_XLPE_Al_u	Length=22.6184	Units=m
New	Line.line_DHO_3208_3209	Bus1=3208	Bus2=3209	phases=3	Linecode=3p_11kV_240_XLPE_Al_u	Length=0.815143	Units=m
New	Line.line_DHO_3209_3210	Bus1=3209	Bus2=3210	phases=3	Linecode=3p_11kV_240_XLPE_Al_u	Length=28.6089	Units=m
New	Line.line_DHO_3210_3211	Bus1=3210	Bus2=3211	phases=3	Linecode=3p_11kV_240_XLPE_Al_u	Length=3.93981	Units=m
New	Line.line_DHO_3211_3212	Bus1=3211	Bus2=3212	phases=3	Linecode=3p_11kV_240_XLPE_Al_u	Length=14.3455	Units=m
New	Line.line_DHO_3212_3011	Bus1=3212	Bus2=3011	phases=3	Linecode=3p_11kV_240_XLPE_Al_u	Length=10.6173	Units=m
New	Line.line_DHO_3213_3214	Bus1=3213	Bus2=3214	phases=3	Linecode=3p_11kV_240_XLPE_Al_u	Length=0.095072	Units=m
New	Line.line_DHO_3214_3215	Bus1=3214	Bus2=3215	phases=3	Linecode=3p_11kV_240_XLPE_Al_u	Length=23.6153	Units=m
New	Line.line_DHO_3215_3012	Bus1=3215	Bus2=3012	phases=3	Linecode=3p_11kV_240_XLPE_Al_u	Length=3.3257	Units=m
New	Line.line_DHO_3216_3217	Bus1=3216	Bus2=3217	phases=3	Linecode=3p_11kV_240_XLPE_Al_u	Length=4.68841	Units=m
New	Line.line_DHO_3217_3218	Bus1=3217	Bus2=3218	phases=3	Linecode=3p_11kV_240_XLPE_Al_u	Length=22.1866	Units=m
New	Line.line_DHO_3218_3219	Bus1=3218	Bus2=3219	phases=3	Linecode=3p_11kV_240_XLPE_Al_u	Length=1.11153	Units=m
New	Line.line_DHO_3219_3013	Bus1=3219	Bus2=3013	phases=3	Linecode=3p_11kV_240_XLPE_Al_u	Length=21.4956	Units=m
New	Line.line_DHO_3220_3221	Bus1=3220	Bus2=3221	phases=3	Linecode=3p_11kV_240_XLPE_Al_u	Length=0.346764	Units=m
New	Line.line_DHO_3221_3222	Bus1=3221	Bus2=3222	phases=3	Linecode=3p_11kV_240_XLPE_Al_u	Length=0.225315	Units=m
New	Line.line_DHO_3222_3223	Bus1=3222	Bus2=3223	phases=3	Linecode=3p_11kV_240_XLPE_Al_u	Length=0.158811	Units=m
...