data_files/feeders/Baneshwor_SS_Feeders/data_files/Lines/Lines_4.txt
New	Line.line_GOT_104_4148	Bus1=104	Bus2=4148	phases=3	Linecode=3p_11kV_240_XLPE_Al_u	Length=8.00709	Units=m

New	Line.line_GOT_4002_4149	Bus1=4002	Bus2=4149	phases=3	Linecode=3p_11kV_240_XLPE_Al_u	Length=16.7241	Units=m
New	Line.line_GOT_4003_4152	Bus1=4003	Bus2=4152	phases=3	Linecode=3p_11kV_240_XLPE_Al_u	Length=7.86119	Units=m
New	Line.line_GOT_4004_4165	Bus1=4004	Bus2=4165	phases=3	Linecode=3p_11kV_240_XLPE_Al_u	Length=1.65389	Units=m
New	Line.line_GOT_4005_4162	Bus1=4005	Bus2=4162	phases=3	Linecode=3p_11kV_240_XLPE_Al_u	Length=1.90677	Units=m
New	Line.line_GOT_4006_4169	Bus1=4006	Bus2=4169	phases=3	Linecode=3p_11kV_240_XLPE_Al_u	Length=13.7911	Units=m
New	Line.line_GOT_4007_4183	Bus1=4007	Bus2=4183	phases=3	Linecode=3p_11kV_240_XLPE_Al_u	Length=4.44533	Units=m
New	Line.line_GOT_4008_4187	Bus1=4008	Bus2=4187	phases=3	Linecode=3p_11kV_240_XLPE_Al_u	Length=4.77037	Units=m
New	Line.line_GOT_4009_4186	Bus1=4009	Bus2=4186	phases=3	Linecode=3p_11kV_240_XLPE_Al_u	Length=34.9115	Units=m
New	Line.line_GOT_4010_4184	Bus1=4010	Bus2=4184	phases=3	Linecode=3p_11kV_240_XLPE_Al_u	Length=1.74643	Units=m
New	Line.line_GOT_4011_4179	Bus1=4011	Bus2=4179	phases=3	Linecode=3p_11kV_240_XLPE_Al_u	Length=22.2382	Units=m
New	Line.line_GOT_4012_4177	Bus1=4012	Bus2=4177	phases=3	Linecode=3p_11kV_240_XLPE_Al_u	Length=5.51392	Units=m
New	Line.line_GOT_4013_4175	Bus1=4013	Bus2=4175	phases=3	Linecode=3p_11kV_240_XLPE_Al_u	Length=27.4937	Units=m
New	Line.line_GOT_4014_4015	Bus1=4014	Bus2=4015	phases=3	Linecode=3p_11kV_240_XLPE_Al_u	Length=47.7251	Units=m
New	Line.line_GOT_4015_4016	Bus1=4015	Bus2=4016	phases=3	Linecode=3p_11kV_240_XLPE_Al_u	Length=30.5833	Units=m
New	Line.line_GOT_4016_4017	Bus1=4016	Bus2=4017	phases=3	Linecode=3p_11kV_100_ACSR_Al_o	Length=57.933	Units=m
New	Line.line_GOT_4017_4018	Bus1=4017	Bus2=4018	phases=3	Linecode=3p_11kV_240_XLPE_Al_u	Length=66.03853	Units=m
New	Line.line_GOT_4018_4019	Bus1=4018	Bus2=4019	phases=3	Linecode=3p_11kV_240_XLPE_Al_u	Length=10.3639	Units=m
New	Line.line_GOT_4019_4020	Bus1=4019	Bus2=4020	phases=3	Linecode=3p_11kV_240_XLPE_Al_u	Length=56.5604	Units=m
New	Line.line_GOT_4020_4168	Bus1=4020	Bus2=4168	phases=3	Linecode=3p_11kV_240_XLPE_Al_u	Length=2.44072	Units=m
New	Line.line_GOT_4021_4022	Bus1=4021	Bus2=4022	phases=3	Linecode=3p_11kV_240_XLPE_Al_u	Length=34.0932	Units=m
New	Line.line_GOT_4022_4023	Bus1=4022	Bus2=4023	phases=3	Linecode=3p_11kV_240_XLPE_Al_u	Length=57.7604	Units=m
New	Line.line_GOT_4023_4024	Bus1=4023	Bus2=4024	phases=3	Linecode=3p_11kV_240_XLPE_Al_u	Length=59.82019	Units=m
New	Line.line_GOT_4024_4025	Bus1=4024	Bus2=4025	phases=3	Linecode=3p_11kV_240_XLPE_Al_u	Length=50.4455	Units=m
New	Line.line_GOT_4025_4026	Bus1=4025	Bus2=4026	phases=3	Linecode=3p_11kV_240_XLPE_Al_u	Length=55.6229	Units=m
New	Line.line_GOT_4026_4027	Bus1=4026	Bus2=4027	phases=3	Linecode=3p_11kV_240_XLPE_Al_u	Length=56.8651	Units=m
New	Line.line_GOT_4027_4028	Bus1=4027	Bus2=4028	phases=3	Linecode=3p_11kV_240_XLPE_Al_u	Length=70.1872	Units=m
New	Line.line_GOT_4028_4029	Bus1=4028	Bus2=4029	phases=3	Linecode=3p_11kV_240_XLPE_Al_u	Length=65.77753	Units=m
New	Line.line_GOT_4029_4030	Bus1=4029	Bus2=4030	phases=3	Linecode=3p_11kV_240_XLPE_Al_u	Length=10.588	Units=m
New	Line.line_GOT_4030_4031	Bus1=4030	Bus2=4031	phases=3	Linecode=3p_11kV_240_XLPE_Al_u	Length=49.9873	Units=m
New	Line.line_GOT_4031_4032	Bus1=4031	Bus2=4032	phases=3	Linecode=3p_11kV_100_XLPE_Al_u	Length=43.3588	Units=m
New	Line.line_GOT_4032_4033	Bus1=4032	Bus2=4033	phases=3	Linecode=3p_11kV_100_ACSR_Al_o	Length=55.021	Units=m
New	Line.line_GOT_4033_4034	Bus1=4033	Bus2=4034	phases=3	Linecode=3p_11kV_100_ACSR_Al_o	Length=99.1152	Units=m
New	Line.line_GOT_4034_4035	Bus1=4034	Bus2=4035	phases=3	Linecode=3p_11kV_100_ACSR_Al_o	Length=128.386	Units=m
New	Line.line_GOT_4035_4036	Bus1=4035	Bus2=4036	phases=3	Linecode=3p_11kV_100_ACSR_Al_o	Length=118.739	Units=m
New	Line.line_GOT_4036_4037	Bus1=4036	Bus2=4037	phases=3	Linecode=3p_11kV_100_ACSR_Al_o	Length=55.5046	Units=m
New	Line.line_GOT_4037_4038	Bus1=4037	Bus2=4038	phases=3	Linecode=3p_11kV_100_ACSR_Al_o	Length=37.6276	Units=m
New	Line.line_GOT_4038_4039	Bus1=4038	Bus2=4039	phases=3	Linecode=3p_11kV_100_ACSR_Al_o	Length=54.7237	Units=m
New	Line.line_GOT_4039_4040	Bus1=4039	Bus2=4040	phases=3	Linecode=3p_11kV_100_ACSR_Al_o	Length=65.2825	Units=m
New	Line.line_GOT_4040_4041	Bus1=4040	Bus2=4041	phases=3	Linecode=3p_11kV_100_ACSR_Al_o	Length=106.535	Units=m
New	Line.line_GOT_4041_4042	Bus1=4041	Bus2=4042	phases=3	Linecode=3p_11kV_100_ACSR_Al_o	Length=95.0564	Units=m
New	Line.line_GOT_4042_4043	Bus1=4042	Bus2=4043	phases=3	Linecode=3p_11kV_100_ACSR_Al_o	Length=44.5253	Units=m
New	Line.line_GOT_4043_4044	Bus1=4043	Bus2=4044	phases=3	Linecode=3p_11kV_100_ACSR_Al_o	Length=54.5135	Units=m
New	Line.line_GOT_4044_4045	Bus1=4044	Bus2=4045	phases=3	Linecode=3p_11kV_100_ACSR_Al_o	Length=12.1615	Units=m
New	Line.line_GOT_4045_4046	Bus1=4045	Bus2=4046	phases=3	Linecode=3p_11kV_100_ACSR_Al_o	Length=52.3163	Units=m
...